%nproc=4
%Mem=2GB
# td=(NStates=1) B3LYP/SVP 

TD

0 1
 8 -5.23015837763776  0.22844695969597 -3.38788162096210
 8  2.87989481558156  3.00179590299030  3.44721098549855
 8  3.33000373817382  0.82957796689669  3.36891885308531
 8  1.66737087298730 -7.17471337573757  1.61951236103610
 8  0.69975672507251 -7.04905580958096 -0.40398432963296
 8  1.90178363766377  4.00911387838784 -0.11752348794879
 7 -2.41348195089509 -0.93808881548155  0.60927745484548
 7 -4.37402130603060  0.70883513211321 -1.27779971207121
 7  1.81680140724072 -0.59884186518652 -0.45569700780078
 7  2.63392466286629  1.84802325242524 -0.54610208520852
 6 -4.83080532683268  1.30606078547855 -0.01152069556956
 6 -4.50133473887389  0.34539095679568  1.23050511121112
 6 -3.08896235243524  0.04141902430243  1.34249959005901
 6 -1.98564360866087  0.59917206420642  2.09997079527953
 6 -0.83157704520452  0.01302274377438  1.89478824102410
 6 -1.09810418541854 -0.98048315741574  0.91454816311631
 6 -6.30158625602560  1.39605136103610 -0.26127454125413
 6  0.48907239053905  0.24176209930993  2.61022569136914
 6 -6.65310774247425  0.95390769596960 -1.50167102480248
 6 -0.25505124712471 -1.90599590069007  0.22281945764576
 6  1.04373728492849 -1.85705821842184 -0.26542533573357
 6 -5.41203926202620  0.57782747594759 -2.23596303710371
 6  1.83591946184618 -2.88546212221222 -0.87609292589259
 6 -2.27598433963396  1.66775850785079  3.14801344134413
 6 -7.22016400860086  1.94266980298030  0.83738435233523
 6  3.08613414171417 -2.39781180548055 -1.28743990109011
 6  1.13390016261626  1.66355949814981  2.58616383478348
 6  2.96521306230623 -0.94374381378138 -1.00292392339234
 6  1.50027556545655 -4.38381276087609 -0.79695816971697
 6 -7.90344706560656  1.03390795519552 -2.20122484448445
 6  1.88362005210521 -5.09771601400140  0.49459578607861
 6  4.25543325972597 -3.11257252305231 -1.84429642704270
 6  4.02932187438744 -0.07382572077208 -1.31223141824182
 6  2.54798741414141  1.71982615691569  3.15252515761576
 6  3.78097262316232  1.33537279357936 -1.10539631033103
 6 -9.15603377637764  1.03980182398240 -1.60536929952995
 6  1.38904621302130 -6.54791352085209  0.43646443914391
 6  4.70668473337334  2.51697375237524 -1.59912363886389
 6  4.04987062156216  3.64640880108011 -1.12097166846685
 6  2.76566532253225  3.20304200560056 -0.53985253225323
 6  6.03598160256026  2.26929880128013 -2.12316384518452
 6  4.48691948534854  5.04944646184618 -1.26455912781278
 6  6.63017056845685  3.24000042144214 -2.93323799189919
 1 -4.45340329102910  2.32568761366137  0.02244178617862
 1 -5.03642207130713 -0.50513550465046  1.11375262356236
 1 -4.75621574077408  0.89875410451045  2.14775691019102
 1 -2.80002741314131 -1.37847470497050 -0.09550194149415
 1 -3.52329802310231  0.65213829002900 -1.64721191849185
 1  0.12728931323132  0.09940991449145  3.62198753095310
 1  1.32064050805081 -0.57027691169117  2.21080940134013
 1 -0.73829432193219 -2.87667563086309 -0.03411359295930
 1 -3.28454060606061  1.77837442274227  3.53777994559456
 1 -1.60121498089809  1.29088771627163  4.19642936753675
 1 -1.79233203250325  2.68090672647265  2.98399055305531
 1 -6.61097499259926  2.40955990809081  1.71230934973497
 1 -7.66931964026403  1.11334766316632  1.39525194779478
 1 -7.96634512581258  2.38108027812781  0.30781977917792
 1  1.06781896319632  2.36188879687969  1.66667667526753
 1  0.62210625072507  2.39489757755776  3.25428578307831
 1  1.54343996229623  0.35855224542454 -0.15763798989899
 1  1.95444370297030 -4.88059358255826 -1.63627168936894
 1  0.31554963536354 -4.50354026742674 -0.75570834053405
 1 -7.84895022002200  0.91640427442744 -3.26265717771777
 1  1.42576551665167 -4.37523182748275  1.23270295789579
 1  2.96550759365937 -5.11445792479248  0.73803774217422
 1  4.14575901970197 -4.08463599209921 -2.27458651125113
 1  4.98937105860586 -2.97284616541654 -0.84084900640064
 1  4.67857495379538 -2.57412946854685 -2.81181150345035
 1  4.84218702580258 -0.52962707150715 -1.77232392059206
 1 -9.43751327352735  0.83003390059006 -0.49452013821382
 1 -10.18586675177518  1.34197857625763 -2.18636837853785
 1  3.72296872827283  3.03000556915692  3.74802298449845
 1  6.41353635923592  1.14811901840184 -1.93930143334333
 1  4.03673468366837  5.61467455945595 -2.19739679467947
 1  3.84399240334033  5.49672674257426 -0.51390447364736
 1  5.54543631513151  5.06950340494049 -1.01910365846585
 1  1.71454899339934 -8.26228747124712  1.50549022212221
 1  7.79611089288929  2.90692799909991 -3.33310207240724
 1  6.23575501980198  4.30310788208821 -3.25201809090909

