%nproc=4
%Mem=2GB
# td=(NStates=1) B3LYP/SVP 

TD

0 1
 8 -5.29695505730573  0.19989410441044 -3.37999083188319
 8  3.01415824192419  2.92855857925793  3.17135339973997
 8  3.33943468126813  0.77637264636464  3.27670963216322
 8  1.36803093899390 -7.24721062546255  1.55754616441644
 8  0.16452320172017 -6.84215511951195 -0.41314524572457
 8  1.69152261156116  4.07005997299730 -0.31619335493549
 7 -2.26331693439344 -0.83029803640364  0.48957548464846
 7 -4.39104300820082  0.50098434703470 -1.30449238133813
 7  1.97558728582858 -0.73166514751475 -0.33408484658466
 7  2.56510778117812  1.92325077517752 -0.56944441944194
 6 -4.77554980128013  1.06444662406241 -0.00230977447745
 6 -4.34915952135214  0.30409682738274  1.15751781248125
 6 -2.89930338653865  0.07193207560756  1.27547288738874
 6 -1.96496154045405  0.59794194119412  2.13650444864486
 6 -0.66228011551155 -0.08456701520152  1.99613837603760
 6 -0.88741311631163 -0.95604071317132  0.84924163246325
 6 -6.23183928132813  1.29963171907191 -0.20891930573057
 6  0.56906038933893  0.30210813391339  2.70515518431843
 6 -6.67217964966497  0.92887519271927 -1.43418427612761
 6 -0.06778252025203 -1.93444874597460  0.23095027072707
 6  1.14884779597960 -1.79640215281528 -0.24104289748975
 6 -5.39286734483448  0.39550924412441 -2.22293173397340
 6  1.99282515241524 -2.97667124312431 -0.79193451005100
 6 -2.17590433163316  1.70541227322732  3.19627826782678
 6 -7.08894088628863  1.96265180118012  0.87227784168417
 6  3.18352388068807 -2.29902192649265 -1.24455561266127
 6  1.10683745634563  1.67251039323932  2.58629384778478
 6  3.11075761676168 -0.94330376977698 -0.91557518851885
 6  1.58219375727573 -4.36404078367837 -0.82701117501750
 6 -7.93939065996600  0.92928749314931 -2.14914963696370
 6  1.54171586168617 -5.08232447484748  0.47931425792579
 6  4.30478819521952 -2.98712997879788 -1.98227022442244
 6  4.04665360756076  0.07527918971897 -1.19472966806681
 6  2.53165578097810  1.70390456475648  3.03004290939094
 6  3.75020954685469  1.39845910221022 -1.04176994769477
 6 -9.12786095909591  0.86936478027803 -1.60968973157316
 6  0.96019332773277 -6.45850457995800  0.46325711841184
 6  4.62143620852085  2.61100315531553 -1.47509123562356
 6  3.94484011851185  3.74269843004300 -1.18082765406541
 6  2.63869262526253  3.35750745214521 -0.60623917091709
 6  5.96954495889589  2.29954182558256 -2.02636416521652
 6  4.32266305970597  5.16318783598360 -1.44580725262526
 6  6.97153470487049  3.19455587698770 -2.40954562266227
 1 -4.45761371207121  1.94777982288229  0.34514405640564
 1 -4.80495892499250 -0.81353634473447  1.27781903020302
 1 -4.82282240144014  0.93975820492049  1.98793092759276
 1 -2.67517492789279 -1.49613647114712 -0.29888227952795
 1 -3.48139383268327  0.60506358255826 -1.60361755905591
 1  0.17200378467847  0.12677265076508  3.78406373857386
 1  1.32466091009101 -0.35774565856586  2.27545586598660
 1 -0.50849134163416 -3.04260222352235  0.30448026642664
 1 -3.24287643964396  2.05179176447645  3.37670383798380
 1 -1.89148400780078  1.07531615911591  4.06562628722872
 1 -1.45449824912491  2.50100873667367  3.09790194419442
 1 -6.68033192829283  2.65591454355436  1.59205732453245
 1 -7.38585129342934  1.28834516291629  1.82641506410641
 1 -8.04301279257926  2.48032020212021  0.39884888208821
 1  0.95786796809681  1.93009561756176  1.59248925652565
 1  0.58094213431343  2.43645173297330  3.11618197269727
 1  1.43100871917192  0.30959734993499 -0.09453167926793
 1  1.96492475107511 -4.90428595179518 -1.57789585178518
 1  0.52154023442344 -4.35020493389339 -1.33621639133913
 1 -7.79814513951395  0.77476011001100 -3.28979989198920
 1  0.69172211231123 -4.41525582988299  1.32481216881688
 1  2.59589063196320 -5.24498097709771  0.95371931033103
 1  4.26894133793379 -4.07044457295730 -2.03599265186519
 1  5.51300342184218 -2.48726760756076 -1.63281820332033
 1  4.14596169246925 -2.60598265386539 -3.10600092239224
 1  5.12436524362436 -0.15509961876188 -1.78689537773777
 1 -9.44676419861986  0.59198009520952 -0.41273195939594
 1 -10.01559972507251  1.07191156955696 -2.26201594329433
 1  3.85297172857286  2.69257182578258  3.49863804600460
 1  6.29645465106511  1.26291049754976 -2.05682318551855
 1  4.47954896509651  5.42244533653365 -2.53088014301430
 1  3.65534353845385  5.90614768466847 -1.14343742694269
 1  5.24339611111111  5.39350580518052 -0.80487223532353
 1  0.86692423092309 -8.10071131363136  1.63170284338434
 1  7.98540982278228  2.85997330363036 -2.86307506970697
 1  7.07524896919692  4.40856842814282 -2.22704559365937

