%nproc=4
%Mem=2GB
# td=(NStates=1) B3LYP/SVP 

TD

0 1
 8 -5.34179954175417  0.19182329732973 -3.29502233503350
 8  2.87543436953695  3.07737346074607  3.49320558495850
 8  3.09991072887289  0.87990299939994  3.63371533273327
 8  1.85224936083608 -7.13012891729173  1.41892230203020
 8  0.39843659305931 -6.99021992599260 -0.33517744894489
 8  2.07666112541254  4.17068003500350 -0.36978871447145
 7 -2.45708631133113 -0.84505951255126  0.56630315741574
 7 -4.50324422832283  0.65748999759976 -1.24601653375338
 7  1.75575530263026 -0.64884686568657 -0.47625906400640
 7  2.65964723512351  1.90584903500350 -0.74227170217022
 6 -4.89119136543654  1.21983216261626  0.03841429792979
 6 -4.53255786118612  0.30351676937694  1.14317637833783
 6 -3.04080753695370  0.23345822822282  1.33831917201720
 6 -2.02296734103410  0.70099224622462  2.08912971117112
 6 -0.85442933043304  0.03341478297830  1.73778254045405
 6 -1.08748312331233 -0.92371748084808  0.77833454175418
 6 -6.48745484288429  1.39586134203420 -0.18053646744674
 6  0.50988447174717  0.31509943304330  2.56466113491349
 6 -6.67786021772177  0.92809511471147 -1.39261011871187
 6 -0.26579232123212 -1.85865116621662  0.09616679237924
 6  1.02592550375038 -1.75719823242324 -0.38878767196720
 6 -5.45023308140814  0.51925161836184 -2.13792323312331
 6  1.86362223212321 -2.88101167716772 -0.79771508810881
 6 -2.31981872307231  1.67250898289829  3.28265690569057
 6 -7.33166515871587  1.95734127012701  0.91016163006301
 6  3.08492402070207 -2.43770579487949 -1.24849600670067
 6  1.05699247184718  1.74971811401140  2.60364558295830
 6  3.02063860486049 -1.02053149254925 -0.95270890189019
 6  1.39986552445244 -4.38489286888689 -1.01410988488849
 6 -7.98650537143714  0.68847341174117 -2.06416113811381
 6  1.91638332843284 -5.16169241164116  0.25341166766677
 6  4.22256997339734 -3.06585785158516 -1.84110610801080
 6  4.04848379057906  0.02674433623362 -1.22271246634663
 6  2.41255387078708  1.82067624192419  3.23654355945595
 6  3.87534206010601  1.38330758705871 -1.08096386708671
 6 -9.17989616261626  0.70012785658566 -1.48868763136314
 6  1.33830113851385 -6.56708543804380  0.40148094079408
 6  4.95417948284828  2.46157821282128 -1.41582530903090
 6  4.28437407190719  3.66631079127913 -1.20697026832683
 6  2.88070682668267  3.30623232463246 -0.65165371237124
 6  6.17728573297330  2.11879375077508 -2.06514804360436
 6  4.58736953035304  5.14157567476748 -1.33441611351135
 6  7.10905845724572  2.91138756015602 -2.56181084918492
 1 -4.49533748444845  2.11403644854485  0.10207974997500
 1 -4.89496792589259 -0.69065405650565  1.08415966426643
 1 -4.81094121332133  0.76444067316732  2.23501563606361
 1 -2.96736414681468 -1.41279813731373 -0.17807019831983
 1 -3.57793348664867  0.79031210741074 -1.41926912421242
 1  0.48047463176318 -0.04394442094209  3.62594792699270
 1  1.15525396939694 -0.30529041304130  2.02256057645765
 1 -0.81618211071107 -2.89639760306031  0.05170498889889
 1 -3.40694284628463  1.80650723602360  3.50529669726973
 1 -1.66946180558056  1.56118474597460  4.16816654125413
 1 -1.73790658995900  2.67978661446145  3.05854800880088
 1 -6.84726862196220  2.75594454655466  1.62208032683268
 1 -7.60129283758376  1.24385071347135  1.72044446704670
 1 -8.37059555085509  2.30584275437544  0.43499249644964
 1  1.20596277757776  2.01162377037704  1.45309531713171
 1  0.35165920602060  2.58062615041504  2.97255761026103
 1  1.68383400170017  0.42097848804881 -0.59403162926293
 1  1.85860411901190 -4.68926444964496 -2.00123818601860
 1  0.37126520692069 -4.55168508190819 -1.05213798349835
 1 -8.05986131113111  0.51065369936994 -3.04769568156816
 1  1.57660060016002 -4.72073637793779  1.27729741734173
 1  3.08431947484749 -5.35338181718172  0.44551849024903
 1  4.26884132793279 -4.21685921442144 -1.71405045764576
 1  5.23739586108611 -2.57211609240924 -1.40612553405341
 1  4.08696579287929 -3.00075213081308 -3.15797611991199
 1  4.93763657075707 -0.38443255205521 -1.66531321952195
 1 -9.44743426562656  1.02376327352735 -0.46575726192619
 1 -10.13623178827883  0.59305368376838 -2.15953569526953
 1  3.63547997939794  2.94496706530653  3.98831701390139
 1  6.24027903350335  1.00991519801980 -2.04694219741974
 1  4.60724173437344  5.24518761076108 -2.54584163916392
 1  3.86161416551655  5.66833390329033 -0.86595967916792
 1  5.53814558605861  5.31250770537054 -1.08857060516052
 1  1.44280181868187 -7.94730597309731  1.40392006510651
 1  8.05037631943194  2.59373667996800 -3.09527829002900
 1  6.92186363066307  4.05341291259126 -2.63945683478348

