%nproc=4
%Mem=2GB
# td=(NStates=1) B3LYP/SVP 

TD

0 1
 8 -5.39610497229723  0.12989710471047 -3.29589242204220
 8  2.89131595769577  3.11138686208621  3.18873513791379
 8  3.27227796559656  0.81630663976398  2.96481844304430
 8  1.52818695459546 -7.43044894929493  1.41429183898390
 8  0.16092284168417 -6.81514241824182 -0.28351228242824
 8  1.80037349664967  3.98623159015902 -0.23477521312131
 7 -2.34450505320532 -0.84938994559456  0.61978850595060
 7 -4.38696260016002  0.60088433703370 -1.27861979407941
 7  1.88545827292729 -0.66110809180918 -0.42145358345835
 7  2.59755102550255  1.85427387748775 -0.55838331333133
 6 -4.82068431473147  1.22731291069107 -0.00216976047605
 6 -4.47270187558756  0.34661107880788  1.23460552125212
 6 -3.06755021122112  0.04183906630663  1.39433477357736
 6 -2.00140518481848  0.67413956095610  2.05933673187319
 6 -0.76706059355936  0.09695113661366  1.75770453265326
 6 -1.03384775977598 -0.92899800890089  0.76485319361936
 6 -6.31629772717272  1.30137189308931 -0.15102351615162
 6  0.61014449774977  0.42120004310431  2.44496916571657
 6 -6.70543297499750  0.77957026222622 -1.34669552725273
 6 -0.15851159315932 -1.85665096619662  0.10088726442644
 6  1.11429434063406 -1.81498401100110 -0.37379617281728
 6 -5.48098615671567  0.49254894809481 -2.11921136193619
 6  1.89307517741774 -2.93835741174117 -0.81404672127213
 6 -2.13871061226123  1.80489222122212  3.10357899789979
 6 -7.19846183838384  1.95136067206721  0.89535014891489
 6  3.21651718001800 -2.48061008530853 -1.16541769886989
 6  1.16571334393439  1.68371151335133  2.44862008040804
 6  3.07872441344134 -0.91449088848885 -0.98467209820982
 6  1.45228076597660 -4.34522890249025 -0.87832630653065
 6 -7.90495721662166  0.76854141854185 -2.09911463346335
 6  1.81611330143014 -5.18286452885289  0.39054538103810
 6  4.38567628402840 -3.11779304510451 -1.73805580298030
 6  4.02332127432743  0.05501716351635 -1.18298849394939
 6  2.55667828322832  1.80553472777278  3.01130103520352
 6  3.76539106500650  1.44742399869987 -1.10113588428843
 6 -9.17914608760876  0.87064490829083 -1.54577333993399
 6  1.13862117051705 -6.52628135763576  0.45809660236024
 6  4.78273233813381  2.59067112211221 -1.43298702520252
 6  4.07340297479748  3.67640180038004 -1.04260383168317
 6  2.67020577657766  3.28091979337934 -0.62895144214421
 6  6.14220222462246  2.23407527892789 -1.85145667446745
 6  4.51622241564156  5.10836235343534 -1.23886655855586
 6  7.00097764916492  3.25912233363336 -2.29415408350835
 1 -4.05395334603460  2.08877392229223  0.18492803480348
 1 -5.06721515061506 -0.76921191229123  1.29787103540354
 1 -4.81812193139314  0.89048327742774  2.18243037753775
 1 -2.92565997639764 -1.63134999249925 -0.05926831813181
 1 -3.48731442474247  0.50201327752775 -1.53930112741274
 1  0.14465104940494  0.08599857335734  3.51011634383438
 1  1.35617406140614 -0.55477536153615  2.21527984838484
 1 -0.55528602110211 -2.92727069036904  0.11601141954195
 1 -3.17077922992299  1.92220880618062  3.54649081668167
 1 -1.39000385978598  1.94939356685669  3.99355908050805
 1 -1.81732453175318  2.81974060986099  2.57094924892489
 1 -6.56829072417242  2.34343329542954  1.56290440924092
 1 -7.88594130243024  1.16088241664166  1.40079250185019
 1 -8.02154064536454  2.47561973207321  0.34326332353235
 1  1.21236341764176  2.19774238223822  1.41055106270627
 1  0.54374841494149  2.40460854865486  2.97635799029903
 1  1.56785240354035  0.28273466366637  0.05448322222222
 1  1.79760801940194 -4.87453297649765 -1.83748181038104
 1  0.29881796219622 -4.19679959335934 -0.89666243594359
 1 -7.83062838783878  0.39758239223922 -3.22476338833883
 1  1.51243418351835 -4.38077238153815  1.19559924752475
 1  2.88639968286829 -5.39663614261426  0.56794073247325
 1  4.05903034683468 -4.20859838833883 -2.20646969956996
 1  5.31657377887789 -3.39647852865287 -1.10820574207421
 1  4.90260735703570 -2.58888094369437 -2.61261158345835
 1  5.16880968806881 -0.10956506530653 -1.64246093429343
 1 -9.30527004920492  1.10630152735274 -0.49111979817982
 1 -10.12900106520652  0.69345372377238 -1.94661440314031
 1  3.82723915531553  3.15308787738774  3.54390257245725
 1  6.33772877847785  1.31881608810881 -2.01531903510351
 1  4.98143915411541  5.16488958095810 -2.30674772977298
 1  3.52333033713371  5.88871594149415 -0.97778086128613
 1  5.29540131163116  5.45511196579658 -0.21291303940394
 1  1.07925546404640 -8.25755699819982  1.07885755885588
 1  7.95954723652365  2.97854516081608 -2.90181894409441
 1  6.88531997629763  4.25912348364837 -2.33009589868987

