%nproc=4
%Mem=2GB
# td=(NStates=1) B3LYP/SVP 

TD

0 1
 8 -5.28942430423042  0.59259337433743 -3.42831566436644
 8  2.90360718681868  3.21967769116912  3.05455171957196
 8  3.05196593439344  0.98173318241824  3.34451641284128
 8  1.49303343924392 -7.21438734313431  1.56780719051905
 8  0.54827157655766 -6.98642954695470 -0.54780871207121
 8  1.98700215951595  3.86469943694369 -0.23005474107411
 7 -2.31554215691569 -0.83359836643664  0.55707223432343
 7 -4.45009891379138  0.84750899949995 -1.22262419451945
 7  2.01488121522152 -0.67286926792679 -0.32437387548755
 7  2.76575784618462  1.76590504060406 -0.53671114611461
 6 -4.99730197649765  1.19468964836484  0.07478793529353
 6 -4.50107471287129  0.11764818251825  1.21504356505651
 6 -2.97716117231723 -0.02954807240724  1.35361070117012
 6 -2.05060010431043  0.64057620462046  2.12067286548655
 6 -0.79610349784978  0.10436187768777  1.76342510471047
 6 -0.95832020702070 -0.76871198029803  0.73030973927393
 6 -6.44097019441944  1.28422017791779 -0.09122753655366
 6  0.56015949924993  0.35350327342734  2.53693836263626
 6 -6.78768119981998  0.97855016021602 -1.36901775947595
 6 -0.09644538653865 -1.82908820992099  0.13335051075107
 6  1.24722763396340 -1.74576708930893 -0.16352514571457
 6 -5.42462052015201  0.69276897009701 -2.16191563236324
 6  1.91223709360936 -2.95605918191819 -0.83652896949695
 6 -2.35885262646265  1.67734946694669  3.22300094009401
 6 -7.29364135633563  1.70931646764676  1.05258587248725
 6  3.15599112741274 -2.35479750405040 -1.16646780388039
 6  1.07872464506451  1.81676481868187  2.46276149454946
 6  3.16601314231423 -1.03934337373737 -0.90712434343434
 6  1.37104264216422 -4.40875525512551 -0.91414988888889
 6 -7.99639636053605  0.82561712611261 -2.09913463546355
 6  1.74971666176618 -5.08610485288529  0.35735206170617
 6  4.30085780218022 -3.09475074087409 -1.90386238363836
 6  4.14583352555256 -0.03269160736074 -1.09892008710871
 6  2.42662527792779  1.97108128242824  2.97914781988199
 6  3.85115964186419  1.35631488778878 -0.97423319401940
 6 -9.28087626062606  0.61361920572057 -1.62815157775778
 6  1.14240154855486 -6.48795752525253  0.45749654235424
 6  4.86284034893489  2.41464351935194 -1.47477120362036
 6  4.12410804530453  3.57271143134313 -1.26169574087409
 6  2.83246200220022  3.21201290269027 -0.70791933893389
 6  6.16174417881788  2.18567043844384 -2.02359388818882
 6  4.46127692109211  5.05028654585459 -1.21135380728073
 6  6.92358991039104  3.06117253865387 -2.64225889398940
 1 -4.59710766146615  2.05398044294429  0.59397893989399
 1 -4.98250667976798 -0.87578256935694  1.13359460776078
 1 -4.87545766496650  0.54553878297830  2.02176431093109
 1 -2.98382579297930 -1.36325318281828 -0.23657604890489
 1 -3.49222491579158  0.80686376257626 -1.51387858515852
 1  0.44619120342034  0.15746572007201  3.54595992819282
 1  1.41052949694969 -0.13744362836284  2.18245656605661
 1 -0.68258875137514 -2.79515747904790 -0.03652383398340
 1 -3.50599275127513  1.64641122642264  3.55728189578958
 1 -1.90173503290329  1.17337596509651  4.13813353795380
 1 -2.10057285658566  2.70854949074907  2.79034118811881
 1 -6.83360725582558  2.19625857795779  1.74969308810881
 1 -7.66313902220222  0.64526085448545  1.49780220282028
 1 -8.21105959725973  2.16702887298730  0.65608460566057
 1  1.13498567986799  2.33624623262326  1.45193520112011
 1  0.59241328142814  2.75545363316332  2.99936029052905
 1  1.70548616691669  0.30795718591859 -0.12611483758376
 1  1.52347060566057 -4.88712423562356 -1.75463352555256
 1  0.25681376177618 -4.41117103050305 -0.80734350405041
 1 -7.85868119311931  0.82382501650165 -3.08863977597760
 1  1.44339727982798 -4.63173747804781  1.33629331693169
 1  2.83867491039104 -5.10602708170817  0.57288122652265
 1  4.13828827262726 -4.30155768426843 -2.21744079667967
 1  5.11860398189819 -3.13872275307531 -1.28561348284828
 1  4.43748084438444 -2.59057111271127 -2.97023734603460
 1  5.19983279037904 -0.30412452125212 -1.34340102830283
 1 -9.57407692989299  0.79767066426643 -0.49455014121412
 1 -10.10533869896990  0.30974535293529 -2.24222396409641
 1  3.86612304370437  2.97424999359936  3.36673485568557
 1  6.39694470007001  1.19108331483148 -1.89111661486149
 1  4.05745675587559  5.57942103410341 -2.16876393139314
 1  3.95769377347735  5.24186125602560 -0.21978506170617
 1  5.59334110561056  5.16222267686769 -0.94354610271027
 1  0.96058359685969 -8.00148139063906  1.52529220232023
 1  8.06722800460046  2.88756606290629 -2.98077683988399
 1  6.77405885018502  4.14457202850285 -2.57925081418142

