%nproc=4
%Mem=2GB
# td=(NStates=1) B3LYP/SVP 

TD

0 1
 8 -5.43835919771977  0.10261437643764 -3.36568940174017
 8  2.79643646974697  3.09294501790179  3.33717998239824
 8  3.31657239503950  0.87131214031403  3.32260422162216
 8  1.56963109900990 -7.16231213561356  1.55225563536354
 8  0.36836358575858 -6.88070897489749 -0.32912684388439
 8  2.02261572087209  3.98129109610961  0.21022928732873
 7 -2.28629923262326 -0.79347435403540  0.50187671477148
 7 -4.40520442434243  0.60898514711471 -1.37860979307931
 7  1.87241696879688 -0.65175715671567 -0.39028046614661
 7  2.74375564596460  1.85807425752575 -0.46827430243024
 6 -4.83165541184118  1.18478865826583 -0.07516706020602
 6 -4.34011861726173  0.35695211291129  1.10640270097010
 6 -2.93058651485149  0.14257914031403  1.28796413651365
 6 -2.05971101540154  0.67505965296530  2.13711450965097
 6 -0.73728761626163  0.07927936943694  1.83085184738474
 6 -1.04866924192419 -0.85500060916092  0.82960966926693
 6 -6.32925902330233  1.29404116001600 -0.20978939273927
 6  0.44009749304930  0.29565748884888  2.55565023382338
 6 -6.64700713241324  0.88766107130713 -1.44541539923992
 6 -0.17402314431443 -1.87141244234423  0.10601777747775
 6  1.12536544774477 -1.82767528012801 -0.32153094629463
 6 -5.53151120922092  0.41904159735974 -2.18745818661866
 6  1.90219608950895 -2.96510008600860 -0.83994931153115
 6 -2.19720646184618  1.71405313731373  3.07890653065307
 6 -7.18716070827083  1.93306884288429  0.89960057395740
 6  3.10773630193019 -2.39427145144514 -1.35348650575058
 6  1.09995676827683  1.72042518471847  2.55582080048005
 6  3.09520606160616 -0.97984742414241 -1.05501913291329
 6  1.51671720962096 -4.35548992859286 -0.90854932883288
 6 -7.99495621652165  0.87203176757676 -2.09635435743574
 6  1.85021671177118 -5.13459970237024  0.47507383388339
 6  4.33890160656066 -3.11035230103010 -1.91259325672567
 6  4.00186912911291 -0.02380071827183 -1.36768696379638
 6  2.47087970337034  1.79881405570557  3.22683258835884
 6  3.83422794869487  1.33668292459246 -1.07785355605561
 6 -9.18359653265327  0.87932577637764 -1.46287505010501
 6  1.17284459285929 -6.51818054755476  0.46815760846085
 6  4.76022008690869  2.48208026302630 -1.49726345284528
 6  4.14195983048305  3.64766892709271 -1.08402797409741
 6  2.74132288828883  3.22279398079808 -0.47037558455846
 6  5.95550355475548  2.15835770717072 -2.24264579337934
 6  4.43787458085809  5.08728024522452 -1.21702437433743
 6  6.84340189158916  3.20402682408241 -2.65408007610761
 1 -4.53942189288929  2.26933197809781  0.00017955995600
 1 -4.82188061716172 -0.65846083718372  0.97761901020102
 1 -4.70129024822482  0.91563579267927  2.00655278977898
 1 -2.80787819821982 -1.42834969246925 -0.05288768006801
 1 -3.61048674197420  0.73446652285229 -1.91593879117912
 1  0.43911049534953  0.13842381588159  3.70697602980298
 1  1.21937038103810 -0.32632251625163  2.01282960336034
 1 -0.67841833433343 -2.83024098739874 -0.17518770037004
 1 -3.29645179717972  2.00837742304230  3.10938710631063
 1 -1.65268012741274  1.38204683218322  3.95030475507551
 1 -1.61410420972097  2.66829546534653  2.72285443944394
 1 -6.55608950405041  2.56437538963896  1.56025414421442
 1 -7.94409711801180  1.19339566796680  1.28469089168917
 1 -7.89706819811981  2.74224639473947  0.50205920312031
 1  1.23588576987699  2.21438404640464  1.72655266286629
 1  0.19668370847085  2.27583567136714  3.11392174667467
 1  1.70735635393539  0.45696208640864 -0.18732095819582
 1  1.98511677027703 -4.83818934213421 -1.81654971717172
 1  0.23030111051105 -4.39766968036804 -1.15145791549155
 1 -7.86290161516152  0.44674730873087 -3.18548946094609
 1  1.35735867596760 -4.56611091539154  1.37816750435043
 1  2.97160820372037 -5.13471995099510  0.63018695709571
 1  4.17083152695269 -4.06045357385739 -2.02006105870587
 1  5.35141726322632 -3.20316919771977 -1.15447036853685
 1  4.88852594889489 -2.73130518611861 -2.93227354965497
 1  4.96803961106111 -0.36863097189719 -1.82254894309431
 1 -9.52204172637264  0.84276517371737 -0.41575226142614
 1 -10.16558472357236  0.98367274567457 -1.93303304500450
 1  3.60528696009601  3.08659122772277  3.55972415461546
 1  6.17023202880288  1.15495970247025 -2.37536503970397
 1  4.72752376257626  5.22869596159616 -2.32587964296430
 1  3.74458246234623  5.75423249314932 -0.76290937413741
 1  5.37751952345234  5.37785424002400 -0.87843959205921
 1  1.01128866736674 -7.95935717821782  1.70493016611661
 1  7.60361164296430  2.96413371967197 -3.32698146034603
 1  6.50333177747775  4.24385195649565 -2.49892278137814

