%nproc=4
%Mem=2GB
# td=(NStates=1) B3LYP/SVP 

TD

0 1
 8 -5.39136449824982  0.46798091309131 -3.53511634443444
 8  3.12787961406141  3.06008173157316  3.24056032043204
 8  3.29179991779178  0.78782379147915  3.16932889408941
 8  1.52911704760476 -7.33237914231423  1.56619702950295
 8  0.44353110251025 -7.01445234923492 -0.37015094629463
 8  1.82876633593359  3.90389335633563  0.00535880028003
 7 -2.40059066176618 -0.93405841244124  0.62756928402840
 7 -4.36727063096310  0.69743399199920 -1.40820275237524
 7  1.90903063016302 -0.59752173317332 -0.39971140924092
 7  2.59771104150415  1.77985643574357 -0.45447292229223
 6 -4.83586583288329  1.25077525692569 -0.08208775227523
 6 -4.41106571197120  0.41525794349435  1.20119217991799
 6 -2.99031248744874  0.09764464686469  1.30067540764076
 6 -1.95968101240124  0.72484463146315  2.17337813601360
 6 -0.75441932943294  0.13269471097110  1.82423118531853
 6 -0.95689006400640 -0.89677478657866  0.87649435773577
 6 -6.31094719211921  1.42582433833383 -0.25766418021802
 6  0.49313279657966  0.33950187328733  2.63295796459646
 6 -6.65010744244424  0.93605591079108 -1.49768062576258
 6 -0.14993073507351 -1.89034433553355  0.13063023872387
 6  1.13332624382438 -1.81429394199420 -0.24997379057906
 6 -5.46086414451445  0.67430712391239 -2.32645208600860
 6  1.95461133103310 -2.93698727472747 -0.78253356995700
 6 -2.18098483968397  1.78877060906091  3.11443008300830
 6 -7.15267725992599  1.88015355135514  0.92332294619462
 6  3.13207873617362 -2.39838186248625 -1.18489964706471
 6  1.10822759535954  1.78312145434543  2.63041826022602
 6  3.11454799579958 -0.94730416981698 -0.96653028402840
 6  1.40201573947395 -4.38267264686469 -0.83258173207321
 6 -8.01305802670267  0.76194075847585 -2.00670539253925
 6  1.72788447854785 -5.10858710111011  0.35431175767577
 6  4.28325604200420 -3.15123638943894 -1.75122712011201
 6  4.06895583778378 -0.00943928212821 -1.23176337143714
 6  2.54946756215622  1.77439161346135  3.11292119721972
 6  3.80123464936494  1.40797005330533 -1.06566233693369
 6 -9.22242041504150  0.49395723952395 -1.52931169376938
 6  1.20995830423042 -6.50719944944494  0.45095588828883
 6  4.74065813071307  2.47164921992199 -1.45157888438844
 6  4.04367000150015  3.66545070527053 -1.11758132943294
 6  2.71104986098610  3.17530923232323 -0.41015956295630
 6  5.93915191959196  2.32999487088709 -2.22533406220622
 6  4.35579637303730  5.05531704890489 -1.22628530043004
 6  6.86461401280128  3.24388080948095 -2.78717338543854
 1 -4.24891284198420  2.14827987288729 -0.05378583658366
 1 -4.95302373147315 -0.65949094019402  1.07210845914592
 1 -4.82927304650465  1.02931716081608  1.99973210771077
 1 -2.78516592699270 -1.26125298279828 -0.11627401870187
 1 -3.50534622792279  0.82788586478648 -1.68883608090809
 1  0.58051463576358 -0.11326135263526  3.63192852505251
 1  1.25195363936394 -0.21344122812281  2.13289160956096
 1 -0.64299479197920 -2.85438340164016  0.04796461486149
 1 -3.33031518351835  1.96877346264626  2.98424459205921
 1 -1.73249810921092  1.38440706820682  4.16424614921492
 1 -1.71020381968197  2.70535917171717  3.01674382838284
 1 -6.58304219931993  2.99145809790979  1.01066918571857
 1 -7.16156886518652  1.02439876827683  1.57019944254425
 1 -8.26219471077108  1.83814598469847  0.55674467166717
 1  0.88058023932393  2.09915252325232  1.68795880348035
 1  0.59964400450045  2.44356244404440  3.28685904040404
 1  1.55994161246125  0.32600899109911 -0.25683790989099
 1  2.07283554215422 -4.91554707790779 -1.56350441264126
 1  0.32093017341734 -4.04505441884188 -1.15236800650065
 1 -8.02340766576658  0.75483811781178 -3.16459737173717
 1  1.37942088218822 -4.66894119841984  1.13880356795680
 1  2.80876191909191 -5.21701818081808  0.65265920432043
 1  4.15379982378238 -4.27915544404440 -1.85016406900690
 1  5.15439756125613 -2.93168204900490 -0.91884680618062
 1  4.63146024232423 -2.86080813641364 -2.82132245454545
 1  4.86020882798280 -0.38110221902190 -1.80819750795080
 1 -9.34980450265027  0.60479137633763 -0.40047073327333
 1 -10.11123928902890  0.62860723912391 -2.27812755445545
 1  3.94941137253725  2.82406497509751  3.56449463166317
 1  6.21379638523852  1.33081728822882 -2.25732323552355
 1  4.50954196439644  5.45832892489249 -2.20403745874587
 1  3.38972697679768  5.54496156605661 -0.99196227942794
 1  5.39809158065807  5.13527998259826 -0.68242999109911
 1  0.98269580808081 -8.10062130463046  1.28584825792579
 1  7.74278556035603  2.86939424572457 -3.05655441764176
 1  6.73550499479948  4.29099667096710 -2.62192508160816

