%nproc=4
%Mem=2GB
# td=(NStates=1) B3LYP/SVP 

TD

0 1
 8 -5.46082144394439  0.34016813181318 -3.38019085188519
 8  3.08720554665467  3.10714643804380  3.26480274467447
 8  3.21672241004100  0.88341335043504  3.21013297449745
 8  1.91540567646765 -7.40181608600860  1.47287769756976
 8  0.30946769616962 -7.02905380938094 -0.20619455065507
 8  1.88179163846385  3.90296326332633 -0.08468020362036
 7 -2.39547014971497 -0.89965497209721  0.57754428152815
 7 -4.39761366526653  0.71395564416442 -1.41855378747875
 7  1.84109383648365 -0.66945892689269 -0.43227466556656
 7  2.77923919431943  1.86094454455446 -0.56619409440944
 6 -4.84966721302130  1.22588276767677 -0.05001454495450
 6 -4.44115872127213  0.28905532323232  1.18537059775978
 6 -3.06280973717372  0.02837772017202  1.30095543564356
 6 -1.99924496879688  0.72653480048005  1.99764056225623
 6 -0.66628051555156  0.07870931243124  1.67194595679568
 6 -0.99692406740674 -0.86686179527953  0.81108781708171
 6 -6.34181027842784  1.36052780868087 -0.19297771157116
 6  0.56660014331433  0.46332425552555  2.32960762956296
 6 -6.77389982168217  0.87073937913791 -1.32755361306131
 6 -0.15003074507451 -1.94662996409641  0.16751392709271
 6  1.13458636983698 -1.76462897549755 -0.32026081928193
 6 -5.52420047814781  0.62010170337034 -2.22892233303330
 6  1.84787065696570 -2.88771234723472 -0.83518883548355
 6 -2.21511825302530  1.83112484448445  2.98538717871787
 6 -7.19364135633563  1.81796733273327  0.95455606950695
 6  3.02966849514952 -2.39772179647965 -1.27035819291929
 6  1.15481225382538  1.84372751495150  2.38884410281028
 6  3.00025656665667 -0.96635607500750 -0.97611124212421
 6  1.44746028392839 -4.34959933953395 -0.84194266816682
 6 -8.11395811671167  0.87787235163516 -2.06844156615662
 6  1.67467915801580 -5.19164540694069  0.42065839233923
 6  4.28406612301230 -3.04316558235824 -1.81490348774877
 6  4.04459340154015 -0.07574591279128 -1.26369656475648
 6  2.55433804920492  1.77346152045204  2.89238914401440
 6  3.83757828372837  1.30007926422642 -0.95999176987699
 6 -9.34699287228723  0.70155799959996 -1.45445420802080
 6  1.21702901130113 -6.57722645214522  0.45541633433343
 6  4.73792785768577  2.48308036303630 -1.32607633413341
 6  4.14832046654665  3.64180834103410 -1.04430400170017
 6  2.74534329032903  3.25992769416942 -0.44764331133113
 6  6.11909991439144  2.27327919931993 -1.88569009780978
 6  4.44878567196720  5.06997851505151 -1.30112278417842
 6  6.95636318771877  3.23340976237624 -2.40282495059506
 1 -4.33800175087509  2.25459050395040  0.29399894189419
 1 -5.03423185228523 -0.65337032813281  1.13146439473947
 1 -5.10168028722872  0.69898412751275  2.12778491299130
 1 -2.54770218061806 -1.43900075757576 -0.36111850315032
 1 -3.50008570187019  1.18345142134213 -1.86075327262726
 1  0.54171075537554  0.05646562006201  3.42366769896990
 1  1.29785822982298 -0.27669755375538  2.00323864426443
 1 -0.50907139963996 -2.92294025732573  0.31368118651865
 1 -3.22170432243224  1.96398298359836  3.52060822842284
 1 -1.82431729112911  1.40203883138314  3.92286201080108
 1 -1.88350114941494  2.78913754955496  2.61103325732573
 1 -6.92405630073007  2.78176712881288  1.45180329912991
 1 -7.48265097339734  1.07681400980098  1.70110253285329
 1 -8.14895338663866  2.23675584568457  0.45758475567557
 1  1.04795697699770  2.49216182418242  1.42685269286929
 1  0.49856389648965  2.52105019281928  3.26947730223022
 1  1.55843146144615  0.30877726792679 -0.27701992809281
 1  1.80428868746875 -4.93943946714672 -1.60597866006601
 1  0.30476855725573 -4.49545945934593 -1.19344211391139
 1 -7.90505583058306  1.12890552455246 -3.02596350835084
 1  1.17265020512051 -4.67746205050505  1.18773846144614
 1  2.85456649954995 -5.22320879987999  0.82263620202020
 1  3.99445388918892 -4.15142267076708 -1.93905295789579
 1  4.98400052155216 -2.94492337313731 -0.89991491299130
 1  4.67240433673367 -2.62912496809681 -2.78990931323132
 1  5.14874768186819 -0.29195330413041 -1.63543023122312
 1 -9.31387090929093  0.47740863806381 -0.32244293049305
 1 -10.26666483158316  0.96675105350535 -2.02815255695570
 1  4.05318174957496  2.88957152575257  3.70078826102610
 1  6.45893089868987  1.18807301380138 -1.78531603480348
 1  4.55932694289429  5.55747883988399 -2.38924597959796
 1  3.84779278337834  5.77252432233223 -0.80190327352735
 1  5.25507727922792  5.22997945254525 -0.58418016611661
 1  1.72314985348535 -8.40839208170817  1.34790446354636
 1  8.00503178497850  3.06940424672467 -2.79574833703370
 1  6.63464490879088  4.20723829512951 -2.33531642074207

