%nproc=4
%Mem=2GB
# td=(NStates=1) B3LYP/SVP 

TD

0 1
 8 -5.34211957375738  0.19473358835884 -3.35656848964896
 8  2.80499732583258  2.99613533693369  3.32115838023802
 8  3.30790152795280  0.81573658275828  3.16433839503950
 8  1.69744388028803 -7.14912081648165  1.44060447024702
 8  0.42092884228423 -6.90313121712171 -0.41378530973097
 8  1.81404486378638  3.99076204320432 -0.16486822242224
 7 -2.41930253295330 -0.96599160576058  0.60457698479848
 7 -4.40738464236424  0.63328757735774 -1.36547847994799
 7  1.95054478157816 -0.72599458045805 -0.13262470057006
 7  2.67115838623862  1.85583403350335 -0.42940041504150
 6 -4.77232947924792  1.18431861126113 -0.07312685618562
 6 -4.40196480188019  0.33725014271427  1.18540060076008
 6 -2.94381783798380 -0.04175929352935  1.34665000510051
 6 -1.99857490179018  0.64449659665967  2.15602640084008
 6 -0.81230511801180 -0.07830638913891  1.82973173537354
 6 -1.08562293729373 -1.05710081918192  0.94562127042704
 6 -6.29821591899190  1.45743749964997 -0.27411582538254
 6  0.56120960426043  0.22263018611861  2.53057772657266
 6 -6.62945537723772  0.96988929412941 -1.56332719041904
 6 -0.16670241224122 -1.98312361346135  0.29558673437344
 6  1.16281919311931 -1.83231574417442 -0.15138393159316
 6 -5.39692775087509  0.52059175237524 -2.21053049384939
 6  1.96368223812381 -2.88570214621462 -0.72820813741374
 6 -2.26917365856586  1.70215194719472  3.10066870687069
 6 -7.18416040824082  1.95161069706971  0.80994160806081
 6  3.15980150845085 -2.25517754205421 -1.21353251035104
 6  1.07249402200220  1.68303144534453  2.51505672407241
 6  3.14351089208921 -0.92067150655065 -0.79456308730873
 6  1.50693623152315 -4.34906928652865 -0.84441291519152
 6 -8.00693741464146  0.95573013741374 -2.10356507850785
 6  1.85567725782578 -5.06597283968397  0.35729205570557
 6  4.31068878527853 -2.99441070687069 -1.94000599799980
 6  4.07139608180818  0.01336299809981 -1.13309350445045
 6  2.53398601400140  1.67951212551255  3.01019092419242
 6  3.75545007090709  1.41006026232623 -0.99144491519152
 6 -9.17817599059906  1.16923476727673 -1.48343710631063
 6  1.19435674407441 -6.44334306380638  0.47249804250425
 6  4.70423448834884  2.43358541354135 -1.46932065856586
 6  4.11238687318732  3.67119127932793 -1.14877444874487
 6  2.69731848784879  3.16287798919892 -0.56414496149615
 6  5.90947895229523  2.20154202560256 -2.14430595939594
 6  4.50367116051605  5.15705722292229 -1.33743641554155
 6  6.62010956235624  3.14283070447045 -2.84471914001400
 1 -4.31933988468847  2.25815085998600 -0.01023148114812
 1 -4.93446187528753 -0.71846683778378  0.91474272257226
 1 -4.88746886608661  0.74846907600760  2.07800993549355
 1 -2.89748715911591 -1.39205606310631 -0.27497988928893
 1 -3.33456915021502  0.65638871507151 -1.44148134543454
 1  0.42606919121912 -0.03540356685669  3.47016234843484
 1  1.28856730073007 -0.32917280128013  2.12845116551655
 1 -0.64387487998800 -3.04406236953695  0.31036085448545
 1 -3.23256540854085  1.88117470277028  3.33150931853185
 1 -1.70842570197020  1.51699032653265  4.15077480208021
 1 -2.03899669896990  2.75244388018802  2.85978813281328
 1 -6.82834672977298  2.73781273337334  1.49139725852585
 1 -7.78041074937494  0.97136346474647  1.23070549314931
 1 -7.89563805510551  2.69681185128513  0.34317331453145
 1  1.21567374867487  2.04573718171817  1.51746175377538
 1  0.29957399749975  2.43054114191419  3.09756011051105
 1  1.77076269456946  0.26691308150815  0.04495226912691
 1  1.86634489308931 -4.64575009820982 -1.90649871207121
 1  0.32944102450245 -4.44004391779178 -0.86989975967597
 1 -7.93418874387439  0.59005163916392 -3.16414732673267
 1  1.30043298339834 -4.52000630493049  1.19404909250925
 1  2.95124616751675 -5.24247072607261  0.73275721412141
 1  3.98757320112011 -3.89297682618262 -2.29428848144814
 1  5.13300542204220 -3.34275315611561 -1.06899182068207
 1  4.74720181648165 -2.44758681428143 -2.67874819711971
 1  4.91868467556756 -0.36367047584758 -1.57922461066107
 1 -9.43738326052605  1.20567146434644 -0.59817050325032
 1 -10.08913707880788  0.99898427682768 -2.21096083778378
 1  3.68355478687869  3.20507307590759  3.71331951415142
 1  6.26284128972897  1.11982618911891 -2.12517002020202
 1  4.22635364556456  5.32424551655165 -2.51054810981098
 1  3.75844384848485  5.75580265016502 -0.81790487368737
 1  5.58295006650665  5.20150660526053 -1.16274802290229
 1  1.26775431393139 -7.97643888638864  1.45197487058706
 1  7.62633391519152  2.83639094539454 -3.29834859705971
 1  6.17933937823782  4.20311788308831 -2.89432232133213

