%nproc=4
%Mem=2GB
# td=(NStates=1) B3LYP/SVP 

TD

0 1
 8 -5.67074243604360  0.07860197519752 -3.32337517031703
 8  2.60928775487549  3.18625434883488  3.27160342474247
 8  3.24900563836384  0.95848085718572  3.17737969916992
 8  1.48142227812781 -7.00427633203320  1.76258666846685
 8  0.94518126752675 -7.24905580958096 -0.55587951915192
 8  1.85782924222422  4.08057102410241 -0.14135587118712
 7 -2.32915351805180 -1.03379838643864  0.56522304940494
 7 -4.50054395829583  0.53587783638364 -1.38589052115212
 7  1.90446017311731 -0.68429041004100 -0.42110354845485
 7  2.67426869726973  1.88513696379638 -0.60856833183318
 6 -4.80411265756576  1.24840501990199 -0.11490103360336
 6 -4.37201180658066  0.31230764846485  1.11508356905691
 6 -2.96362981918192  0.00636551895190  1.15566090619062
 6 -1.96725176947695  0.69070121712171  2.03819461766177
 6 -0.81637552505251  0.06143758525853  1.74143290549055
 6 -0.99671404640464 -0.91651676077608  0.66527323562356
 6 -6.27124322172217  1.48875063096310 -0.14614302810281
 6  0.53859734303430  0.18145606870687  2.44899956875688
 6 -6.76879931163116  1.12327463266327 -1.45336619431943
 6 -0.17613335533553 -1.92701800290029  0.20020719641964
 6  1.13023593479348 -1.91071358395840 -0.27954674787479
 6 -5.60530858895890  0.62602229542954 -2.19748918971897
 6  1.91652752265227 -2.96050962696270 -0.82602791939194
 6 -2.24033077427743  1.59515124712471  3.17298593859386
 6 -7.07866985918592  2.08648418441844  0.95668628252825
 6  3.08228375667567 -2.41906393069307 -1.37582873997400
 6  0.96310308290829  1.73641678387839  2.47433265166517
 6  3.07902444344434 -1.00966040544054 -1.00843447444744
 6  1.51244678257826 -4.40778515811581 -0.73717219111911
 6 -8.05031175207521  0.97599216361636 -2.04975969796980
 6  1.75085677577758 -5.11734797719772  0.48127445394539
 6  4.29373709010901 -2.98844010981098 -2.02342433983398
 6  3.96719566176618  0.03211487328733 -1.27125732083208
 6  2.37401001640164  1.81737591189119  3.00381028612861
 6  3.79693421932193  1.37299655595560 -1.09136490719072
 6 -9.23973214621462  0.94746259005901 -1.27151591419142
 6  1.36915422382238 -6.55195392489249  0.46429722242224
 6  4.76884094899490  2.42090414541454 -1.43864759125913
 6  4.23156879137914  3.63481764196420 -0.97099667096710
 6  2.78248700470047  3.26952865426543 -0.48981752875288
 6  6.05423342774277  2.17017888928893 -2.00308183698370
 6  4.65376617001700  4.99106062326233 -1.19089176107611
 6  6.96842439383938  3.15279170057006 -2.36994166226623
 1 -4.09631758245825  2.10877592249225 -0.05706616461646
 1 -4.77708613771377 -0.57952294339434  0.92841408970897
 1 -4.67581770097010  0.80548477757776  1.92216435093509
 1 -2.92462987338734 -1.46993385088509 -0.26689908120812
 1 -3.59909560286029  0.76215929212921 -1.77241443874387
 1  0.54710129442944 -0.36805683218322  3.59360469266927
 1  1.30901934593459 -0.31727161116112  1.86684500490049
 1 -0.54330482298230 -2.87675563886389  0.00868068646865
 1 -3.17470962296230  1.61071765706571  3.44518068566857
 1 -1.48937379677968  1.30956958445845  4.03739346394640
 1 -1.80309310861086  2.56305494129413  3.04404655865587
 1 -6.49391328642864  2.52422137423742  1.59953807260726
 1 -7.74010671897190  1.32163849224922  1.54232665526553
 1 -7.81640013131313  2.82003417351735  0.59339833703370
 1  1.07977015831583  2.26661926992699  1.47165717331733
 1  0.60714475457546  2.43749183698370  3.28795915041504
 1  1.97034265256526  0.48957534773477 -0.44214644074407
 1  1.79837809640964 -4.90682620582058 -1.61403946614662
 1  0.39609769016902 -4.58077799119912 -0.80600337003700
 1 -8.16537186218622  0.92507514151415 -3.04912582458246
 1  1.33907684778478 -4.61827613191319  1.25087477507751
 1  2.69865090799080 -5.14528100710071  0.89149308770877
 1  3.91874631843184 -4.06711423992399 -2.31996104870487
 1  5.19228134963496 -3.14546342714271 -1.25075999749975
 1  4.61834893119312 -2.43654571017102 -2.84079440174017
 1  4.91897470457046 -0.21651576037604 -1.73139982818282
 1 -9.40937045924593  1.12245314251425 -0.12659334553455
 1 -10.34572273737374  0.84126850525053 -1.71785152685269
 1  3.63674010541054  3.41493406200620  3.26748493069307
 1  6.29881488708871  1.08531273777378 -1.97285478867887
 1  4.80850186038604  4.92447553955396 -2.23223027802780
 1  4.02058006210621  5.68000507040704 -0.74237732093209
 1  5.57052882438244  4.98219467406741 -0.35175692379238
 1  1.34166170467047 -7.94872611511151  1.62687236033603
 1  8.08752003380338  2.83738104440444 -2.64718348054805
 1  6.92141358565857  4.24275184648465 -2.38650153925393

