%nproc=4
%Mem=2GB
# td=(NStates=1) B3LYP/SVP 

TD

0 1
 8 -5.38974433623362  0.09100321532153 -3.22813564636464
 8  2.97219404550455  3.04827055045505  3.11037730213021
 8  3.10070080788079  0.84048905800580  3.35304726592659
 8  1.36824095999600 -7.14418032243224  1.49117952775278
 8  0.53580032943294 -6.96565746974698 -0.53926785798580
 8  2.01830528982898  4.01065403240324 -0.10591232683268
 7 -2.38564916761676 -0.85544055065507  0.52099862696270
 7 -4.31834573847385  0.74870911951195 -1.24964689678968
 7  1.83982370947095 -0.63258523952395 -0.44750618871887
 7  2.79347061746175  1.84922337243724 -0.44787226222622
 6 -4.77949019531953  1.22796297569757  0.10776123262326
 6 -4.43959856525653  0.18999541724172  1.16379844054405
 6 -3.00771422762276  0.03682856525653  1.28089342944294
 6 -2.00724576887689  0.72691483848385  2.05260605880588
 6 -0.79236312381238  0.07320876237624  1.78138690089009
 6 -1.04875925092509 -0.89383449254925  0.77531423972397
 6 -6.32247834523452  1.37851960786079 -0.16923533733373
 6  0.50239372267227  0.36049397249725  2.38032270107011
 6 -6.67309974167417  0.92568487368737 -1.32178303600360
 6 -0.24700044204420 -1.87771307240724  0.17203437913791
 6  1.07150006120612 -1.82344485708571 -0.34658345154515
 6 -5.42690074817482  0.48978867206721 -2.08318775957596
 6  1.85416128602860 -2.95637921392139 -0.88556387298730
 6 -2.34538127932793  1.78719045104510  3.11802044204420
 6 -7.30879287148715  1.82232776877688  0.88393900780078
 6  3.10682621092109 -2.41363338763876 -1.25925708280828
 6  1.00669744234423  1.87353049524952  2.49027424582458
 6  3.06151269226923 -0.95443488288829 -0.97300093109311
 6  1.45437097499750 -4.38938331793179 -0.89094756865687
 6 -7.96205292619262  0.63194775917592 -1.99061378337834
 6  1.69269095919592 -5.07935417781778  0.47289361586159
 6  4.26593430983098 -3.05445671147115 -1.80944294169417
 6  4.12421136333633  0.00801246304630 -1.19965016011601
 6  2.47357997339734  1.83029720402040  2.94971487658766
 6  3.86327085298530  1.35666492279228 -0.99009478017802
 6 -9.19925809880988  0.69649749354935 -1.54775353795380
 6  1.06607391579158 -6.50096882638264  0.43696448914891
 6  4.81156522142214  2.43476553155316 -1.44490821732173
 6  4.21848748324832  3.61274543474347 -1.07738731003100
 6  2.84496325232523  3.29663136453645 -0.50626917391739
 6  6.14643264766477  2.26815868726873 -2.05655718451845
 6  4.55059585298530  5.06971848904891 -1.28942161406141
 6  6.99769732113211  3.21750817221722 -2.60269493759376
 1 -4.33894184488449  2.16425147004701  0.36428597059706
 1 -4.76110453955395 -0.70925591669167  0.86074732303230
 1 -4.90797091629163  0.43697792689269  2.19137127162716
 1 -2.79058646904690 -1.57539439693969 -0.01744413571357
 1 -3.38456414971497  0.46682975917592 -1.39984718201820
 1  0.46315289958996 -0.04500452695270  3.26336166836684
 1  1.51861030503050 -0.18890877487749  1.94427274767477
 1 -0.97810830333033 -2.67075503880388 -0.07298748034803
 1 -3.44756690869087  1.87915450075007  3.37429359695970
 1 -1.95746060546055  1.93467209470947  4.21778150275028
 1 -1.99394219351935  2.80636927272727  2.86540869486949
 1 -6.80195409050905  2.45879483158316  1.74612273107311
 1 -7.70512322062206  0.95308163656366  1.55535795839584
 1 -7.89440793209321  2.51522369246925  0.24119311651165
 1  1.18191037233723  2.26621922992299  1.49453946154615
 1  0.24193823392339  2.41103919171917  3.22869322382238
 1  1.66629224752475  0.39336572677268 -0.16196842294229
 1  2.11808006660666 -4.69537506070607 -1.65211327352735
 1  0.40227830823082 -4.28042795619562 -1.19655242494249
 1 -7.79127445244524  0.67840047404740 -3.08277918991899
 1  1.26827976807681 -4.48386269056906  1.40024971257126
 1  2.78166920982098 -5.23007948694869  0.78498243664366
 1  4.24589903370337 -4.18253578207821 -1.82472152475248
 1  5.26571869336934 -2.99102798359836 -1.09638455995600
 1  4.35622271857186 -2.37014907050705 -2.63340366266627
 1  5.06994980208021 -0.28996310511051 -1.56956364456446
 1 -9.28525804800480  0.81549244644464 -0.49509019521952
 1 -10.04450261536154  0.79439381778178 -2.28118786048605
 1  3.69379581098110  2.98683125172517  3.68584676687669
 1  6.41303630923092  1.22035624212421 -2.16968447164716
 1  4.53902491269127  5.32130522252225 -2.26499355435544
 1  3.86090409450945  5.91367843774377 -0.85256834003400
 1  5.71159293079308  5.20497695229523 -0.93275502360236
 1  1.04067160566057 -8.04397564006401  1.38119779287929
 1  7.95574685648565  3.12762006830683 -3.13429219141914
 1  6.58571001530153  4.35555312661266 -2.73506639573957

