%nproc=4
%Mem=2GB
# td=(NStates=1) B3LYP/SVP 

TD

0 1
 8 -5.50631599339934  0.23738785378538 -3.38800163296330
 8  2.77417424352435  3.06136185958596  3.51693795819582
 8  3.20327106490649  0.80954596369637  3.30231219241924
 8  1.54645878177818 -7.19714561896190  1.54032444224422
 8  0.18310505990599 -6.88735963996400 -0.34288822002200
 8  1.96819027832783  4.06709967696770 -0.22953468906891
 7 -2.35055565826583 -0.83074808140814  0.46652317941794
 7 -4.46322022592259  0.56207045564556 -1.29622155425543
 7  1.93967369446945 -0.69539152015201 -0.45395683378338
 7  2.76449772017202  1.87540599069907 -0.48510598559856
 6 -4.85508775507551  1.13558373777378 -0.03239278277828
 6 -4.41062566796680  0.27256367406741  1.12109417011701
 6 -2.98095155135514  0.01988687108711  1.30141548164816
 6 -2.05976102040204  0.71213336033603  2.05534633283328
 6 -0.74786867436744  0.18219966146615  1.66065482768277
 6 -0.98490286528653 -0.81766687578758  0.58844555285529
 6 -6.40034613201320  1.28579033493349 -0.13389180298030
 6  0.51354483778378  0.24808273137314  2.47024169296930
 6 -6.78232066376638  0.83556586178618 -1.34043490119012
 6 -0.25569131113111 -1.80760606170617 -0.05971879617962
 6  1.12960587178718 -1.78863137573757 -0.42132092529253
 6 -5.61606966506651  0.52500219341934 -2.17055649644964
 6  1.97200307020702 -2.92341591759176 -0.88268358495850
 6 -2.27353409460946  1.71462319431943  3.10404904490449
 6 -7.23029502170217  1.76318185418542  0.98188880278028
 6  3.22120764906491 -2.36879890419042 -1.17675883298330
 6  1.13872064466447  1.72680582278228  2.47882310071007
 6  3.20036657765777 -0.91873131253125 -0.90081371237124
 6  1.55485102300230 -4.29121350095009 -0.87345581948195
 6 -8.09334605550555  0.75695025942594 -1.98589331133113
 6  1.67983967406741 -5.06733297569757  0.43690001650165
 6  4.43142085848585 -3.11405267106711 -1.68897089448945
 6  4.20818976117612  0.00655231703170 -1.20239043414341
 6  2.46302891829183  1.72686686098610  3.16758666376638
 6  3.91646617251725  1.38204746104610 -0.88669444014401
 6 -9.28305647864786  0.78634647844784 -1.39237800040004
 6  1.08363567196720 -6.46144487398740  0.44561535423542
 6  4.82612667756776  2.47750980598060 -1.46400012651265
 6  4.20371600610061  3.73041720192019 -1.15566513781378
 6  2.85052380838084  3.25882758415842 -0.55591413841384
 6  6.17087509190919  2.23314518591859 -2.03573510231023
 6  4.57460825422542  5.14116563376338 -1.36975964786479
 6  6.97410496189619  3.12234865626563 -2.63627829592959
 1 -4.41044899559956  2.21712675757576  0.13195273727373
 1 -5.14481291039104 -0.65954094519452  1.24782603090309
 1 -4.87109722892289  0.95885011411141  1.94025616011601
 1 -2.49840725112511 -1.32444930243024 -0.46453884518452
 1 -3.47981367466747  0.54767784398440 -1.79479667696770
 1  0.27021360566057 -0.18952897939794  3.50330566276628
 1  1.50434887888789 -0.40536042004200  2.09857817821782
 1 -0.93401389388939 -2.54420238353835 -0.25544572617262
 1 -3.19852200420042  1.77083366866687  3.49790595819582
 1 -1.48730358975898  1.65594422192219  4.03975369997000
 1 -1.99078187748775  2.53328196399640  2.64564671867187
 1 -6.55332922802280  2.33163211531153  1.76760487928793
 1 -7.95150785908591  0.95708203660366  1.69726214881488
 1 -8.06554504580458  2.28132030213021  0.67668666586659
 1  1.46098828012801  2.13294590259026  1.45035504310431
 1  0.49026306640664  2.23729181698170  2.93189354385439
 1  1.93103872217222  0.34935132533253 -0.27750997709771
 1  2.05707396599660 -5.00053557675768 -1.64791285348535
 1  0.63056113651365 -4.33763367676768 -1.17273004270427
 1 -8.05776110111011  0.75230786478648 -2.96634754675468
 1  1.26452939303930 -4.52259656395640  1.29173886148615
 1  2.73387443034303 -5.12193867286729  0.72671661006101
 1  3.83001744554455 -4.13961148964896 -1.99579863246325
 1  5.19809193069307 -3.22512139293929 -1.00561548304830
 1  4.78949604590459 -2.50066212181218 -2.64301462376238
 1  5.26148895599560 -0.38678278707871 -1.46646333453345
 1 -9.31402092429243  0.77911880908091 -0.26776746294629
 1 -10.24357252235223  0.90335471387139 -1.78858860056006
 1  3.93023945534553  3.15648821742174  3.40114829702970
 1  6.69108411401140  1.20864507100710 -2.04853235643564
 1  4.92198320852085  5.42638573057306 -2.27011406640664
 1  3.81942994709471  5.77579464936494 -0.77591067426743
 1  5.71100287178718  5.33594004860486 -0.96782853095310
 1  1.02360989948995 -7.85770701320132  1.69707938103810
 1  7.82121340314031  2.82592989928993 -3.22320108230823
 1  6.62453389768977  4.19929750105011 -3.07659054815481

