%nproc=4
%Mem=2GB
# td=(NStates=1) B3LYP/SVP 

TD

0 1
 8 -5.18148351015101  0.47457157215722 -3.34273710651065
 8  2.71712853895390  3.18364408780878  3.34786105050505
 8  3.09139987778778  1.01879688878888  3.14634659585959
 8  1.82147628352835 -7.16741264566457  1.42965337513751
 8  0.39615636503650 -6.88100900490049 -0.34815874707471
 8  2.09403286258626  4.01818478547855 -0.09583131873187
 7 -2.35634623732373 -0.96819182578258  0.64421094819482
 7 -4.40626453035304  0.68184243284328 -1.21538347044704
 7  1.92645237233723 -0.69426140714071 -0.29156059415942
 7  2.75731700210021  1.79272772287229 -0.56392386738674
 6 -4.83407565386539  1.06763694309431  0.11839229572957
 6 -4.58066267166717  0.01789820752075  1.30163222392239
 6 -3.04641809800980 -0.04788990659066  1.42757809790979
 6 -2.11628667296730  0.63821596859686  2.16386718491849
 6 -0.80007389488949  0.06575801730173  1.88094685688569
 6 -0.95040941594159 -0.88239334843484  0.83550025832583
 6 -6.25463156055606  1.30171192709271 -0.08437685148515
 6  0.44839832313231  0.40857878097810  2.59521419021902
 6 -6.60985341704170  0.94515682088209 -1.36782764046405
 6 -0.11026676867687 -1.84050935203520  0.18277545324532
 6  1.14433734493449 -1.86001851445145 -0.18259705290529
 6 -5.34889294739474  0.67921761496150 -2.14227366816682
 6  1.81924779467947 -2.95004858085809 -0.90373569016902
 6 -2.52648939013901  1.62848458045805  3.24402304230423
 6 -7.26522851505151  1.87274281028103  1.02044265816582
 6  3.05743127142714 -2.44303632793279 -1.26067722482248
 6  0.91465823842384  1.78500164236424  2.51577679607961
 6  3.05896243724372 -0.94514395379538 -1.02284591559156
 6  1.49999553745375 -4.39127350695069 -0.89815828972897
 6 -7.84406112701270  1.05511007540754 -2.21695641764176
 6  1.85099678977898 -5.10978722112211  0.41917824432443
 6  4.14240195659566 -3.16479774557456 -2.03765576297630
 6  4.06184512671267  0.00139180098010 -1.29205940104010
 6  2.32110472587259  1.95931010531053  3.02849275437544
 6  3.84898942484248  1.29820907720772 -1.08308407910791
 6 -9.10291846484649  0.82308015181518 -1.71057982058206
 6  1.23572088048805 -6.44767349684969  0.41963275597560
 6  4.83452751765177  2.46879893489349 -1.52630635713571
 6  4.06089172367237  3.58538269846985 -1.23350292159216
 6  2.84258301430143  3.21191289268927 -0.66418496549655
 6  6.12312031643164  2.10696256765677 -2.12462399119912
 6  4.41991278467847  4.98819033623362 -1.44858753065307
 6  6.99905745714571  3.09398581998200 -2.55354002210221
 1 -4.44320227092709  2.11047609250925  0.30644018601860
 1 -5.22141057015702 -0.75092008310831  0.86021727002700
 1 -5.06333645284529  0.43851808090809  2.20095222972297
 1 -2.83190060046005 -1.53533039053905 -0.05407779907991
 1 -3.39776546984699  0.66016909310931 -1.54443164046405
 1  0.38321490579058 -0.10153017951795  3.63110844304430
 1  1.13930237423742 -0.28084796879688  2.22153047344734
 1 -0.72668316081608 -2.73856181948195  0.06743656205621
 1 -3.60804295629563  1.65575216051605  3.47166333393339
 1 -2.04040890029003  1.46811543904390  4.30402012661266
 1 -1.97627042634263  2.64194283008301  2.97732988698870
 1 -6.75557945304530  2.62820177227723  1.87849596839684
 1 -7.62931563986399  1.22757908630863  1.74739716231623
 1 -7.84498298959896  2.54811698179818  0.30297929512951
 1  1.04267644894489  2.28295090309031  1.52170217781778
 1  0.12372641274127  2.47434552235224  3.16406676117612
 1  1.46424204250425  0.13062945314531 -0.25135736183618
 1  1.97349560816082 -4.84870039323932 -1.85167322952295
 1  0.33522160256026 -4.67292720612061 -0.95781855155516
 1 -7.61542686768677  1.31844447844784 -3.32753366536654
 1  1.58251119121912 -4.49812411671167  1.32403209080908
 1  2.80253129602960 -5.40566704570457  0.63806774517452
 1  4.13107755155515 -4.29087661616162 -1.81083013561356
 1  5.07173929542954 -2.85132401320132 -1.48474339583958
 1  4.30022711901190 -3.06922897849785 -3.23830415271527
 1  5.02207501460146 -0.32759686848685 -1.74375106330633
 1 -9.21213073527353  0.08745964316432 -0.59161984818482
 1 -9.99945811091109  1.00858523692369 -2.30090983268327
 1  3.55353178457846  3.03948651725172  3.63920210241024
 1  6.45520052565257  1.14207841434143 -2.10004750795080
 1  4.74846585678568  5.33541663366337 -2.51550860586059
 1  3.49810781488149  5.61789885978598 -1.03726680988099
 1  5.29839161066107  5.32616907150715 -0.85366711481148
 1  1.27713525202520 -8.00976221872187  1.61437111021102
 1  8.05121640344034  2.89250655695569 -2.93473223542354
 1  6.91863330763076  4.15028259955996 -2.43488637773777

