%nproc=4
%Mem=2GB
# td=(NStates=1) B3LYP/SVP 

TD

0 1
 8 -5.40859622142214  0.41779589458946 -3.37603043584358
 8  2.66081290739074  3.18214393779378  3.23779004340434
 8  3.13776451425143  1.00033504260426  3.30826278747875
 8  1.61021515741574 -7.20246615101510  1.60337074687469
 8  0.55623237263726 -7.05450635463546 -0.43115704690469
 8  1.87510096939694  3.99509247624762 -0.11735347094710
 7 -2.24495509820982 -1.04110911751175  0.63745027212721
 7 -4.37021092499250  0.70371462006201 -1.24990692279228
 7  1.95454518161816 -0.64909689068907 -0.48203964206421
 7  2.62290356075608  1.83920237033703 -0.56840431543154
 6 -4.82395464176418  1.16182636203620  0.01632208870887
 6 -4.48968357375738  0.13459987768777  1.11925398609861
 6 -2.93301675787579  0.00221510391039  1.23908924902490
 6 -2.03774881918192  0.71392353935394  2.07720851905191
 6 -0.71715560306031  0.00541198269827  1.81501026322632
 6 -0.84801917691769 -0.99653476257626  0.80979768806881
 6 -6.34164026142614  1.29057081298130 -0.15909432323232
 6  0.56871035433543  0.36217414051405  2.65973064186419
 6 -6.73378581028103  1.03192549774977 -1.41059191689169
 6 -0.04630037203720 -2.06979228032803  0.19059623532353
 6  1.12019493069307 -1.87971048364837 -0.32389118231823
 6 -5.51367942604260  0.67707740094009 -2.11133057385739
 6  1.97200307020702 -2.94705828182818 -0.77461277787779
 6 -2.27173391459146  1.77196892889289  3.08759739973997
 6 -7.18305029722972  1.86627216321632  0.97371798569857
 6  3.10974650295030 -2.41458348264826 -1.37284844194419
 6  0.95966273887389  1.80113325552555  2.50152537093709
 6  3.14698123912391 -0.94395383478348 -1.09117274827483
 6  1.49260479837984 -4.41015539513951 -0.78960743464346
 6 -7.94205092599260  0.94745931033103 -2.11022574457446
 6  1.79957164726473 -5.11984822722272  0.50755708220822
 6  4.35035275167517 -3.23658492429243 -1.93535553295330
 6  4.05973491569157 -0.00306864506451 -1.33297349244925
 6  2.35011762716272  1.92666684098410  3.07489739483948
 6  3.78945347124712  1.38293755005501 -1.17162293299330
 6 -9.16162433543354  1.06919476327633 -1.56609537213721
 6  1.25019232763276 -6.51586031553155  0.47239803250325
 6  4.72790685558556  2.45906796179618 -1.40666439293929
 6  4.04798043254325  3.60464462466247 -1.08385795709571
 6  2.74740349634963  3.18038974037404 -0.50159870687069
 6  6.01303930833083  2.20558242964296 -2.10744227302730
 6  4.66010680408041  4.99253077027703 -1.03943661556156
 6  6.81285883728373  3.13458988038804 -2.74143881198120
 1 -4.66331428212821  2.10991603650365  0.34611415341534
 1 -4.85162359145915 -0.85776076717672  0.78473972227223
 1 -5.02257237643764  0.59941417051705  2.10325245974597
 1 -2.87444485488549 -1.30821767926793 -0.21558394969497
 1 -3.50537623092309  1.17189026522652 -1.70726792409241
 1  0.39283586788679  0.12099207270727  3.78804413661366
 1  1.41792023602360 -0.16268615261526  2.11569989038904
 1 -0.62936342884288 -2.74711267456746  0.28720853925392
 1 -3.40011216321632  1.95305189048905  3.36884305190519
 1 -1.76256111551155  1.56468509600960  4.00189991459146
 1 -2.27379017831783  2.79483811961196  2.71595374937494
 1 -6.68973286838684  2.20578953105311  1.89274739353935
 1 -7.89205191349135  1.00664699309931  1.57177960056006
 1 -8.06874536583658  2.79613178327833  0.75214421162116
 1  0.89336151745174  2.06764937293729  1.41324133173317
 1  0.17815185528553  2.37690577837784  2.84667502200220
 1  1.60918653695370  0.20037642784278 -0.31373359945995
 1  1.90683894249425 -5.01587711091109 -1.61949001120112
 1  0.46725480588059 -4.35928584198420 -0.97217998769877
 1 -7.93439876487649  0.82893552755276 -3.10846175817582
 1  1.44393733383338 -4.47072137643764  1.22611229882988
 1  2.89227026992699 -5.33592007100710  0.63629756815682
 1  4.22096654045404 -4.41865939443944 -2.18891794439444
 1  5.26500862236224 -3.22906178697870 -1.40999592109211
 1  4.64423151945195 -2.68727078267827 -2.87813813611361
 1  4.85445825292529 -0.34401851065107 -2.10788747694769
 1 -9.32806232843284  1.18223912111211 -0.52212289848985
 1 -10.16427459255926  0.87722210061006 -2.18854859655966
 1  3.52265869726973  3.40982355095510  3.86488467066707
 1  6.36640164576458  1.30060426692669 -2.13083058625863
 1  4.59959096929693  5.41384447644764 -2.05098215321532
 1  4.07452545664566  5.86384345424542 -0.53243632683268
 1  5.65173694519452  4.92797925252525 -0.58684043214321
 1  1.00779831833183 -8.05643688618862  1.60544021712171
 1  7.80479176097610  2.88028533483348 -2.95501426362636
 1  6.45519696399640  4.14939251055105 -2.86043893299330

