%nproc=4
%Mem=2GB
# td=(NStates=1) B3LYP/SVP 

TD

0 1
 8 -5.29900526232623  0.02799691469147 -3.41076390919092
 8  2.90152697879788  2.95204092749275  3.26364262866287
 8  3.15844658245825  0.69392440154015  3.32760472167217
 8  1.87577171307131 -7.16494239863986  1.59631004080408
 8  0.49734648404840 -7.00198110211021 -0.20274420562056
 8  1.96957041634163  4.02838580558056  0.08693695809581
 7 -2.39584018671867 -0.91596660326033  0.55116164326433
 7 -4.38416232013201  0.54354860346035 -1.30229216131613
 7  1.81360108720872 -0.67982996399640 -0.40148158625863
 7  2.69942121252125  1.82274072417242 -0.43113058805881
 6 -4.86811905820582  1.20224040344034 -0.07096664016402
 6 -4.46634123952395  0.32027844554455  1.22616467716772
 6 -3.07903135933593  0.10709559195920  1.33461880198020
 6 -2.00257530183018  0.60865301230123  2.17068786698670
 6 -0.81032491999200  0.07163860536054  1.94188295049505
 6 -1.08586296129613 -0.82632774187419  0.88534524282428
 6 -6.35724182158216  1.44988674457446 -0.28900731453145
 6  0.53305678897890  0.27730565366537  2.59537420622062
 6 -6.68127055875587  1.08243054825483 -1.55767662536254
 6 -0.19169491149115 -1.86439174027403  0.16327350305030
 6  1.08749166036604 -1.83991650425043 -0.34174296749675
 6 -5.41882994109411  0.55289498269827 -2.24642408320832
 6  1.88867473737374 -2.92627620362036 -0.83994931153115
 6 -2.26839358055806  1.74898663066307  3.02553119311931
 6 -7.16391838403840  1.97167270327033  0.85311592549255
 6  3.08379390769077 -2.38694071837184 -1.24500565766577
 6  1.14037080968097  1.68430157235724  2.62873809220922
 6  2.96301284228423 -0.91996143554355 -1.03332696369637
 6  1.48961449934993 -4.36159053865387 -0.89316779067907
 6 -7.96979370027003  0.92108667306731 -2.17285200720072
 6  1.92399408950895 -5.08650489288929  0.34182050855086
 6  4.17007472387239 -2.98001926772677 -1.97517951535154
 6  3.94972391459146  0.07756941874187 -1.42763295839584
 6  2.51066368176818  1.72883705800580  3.14386429152915
 6  3.71634616051605  1.38242749904991 -1.04770054075408
 6 -9.18096626962696  1.02379022282228 -1.47487625022502
 6  1.34080138853885 -6.49402813231323  0.51578237093709
 6  4.69839390429043  2.45393744874487 -1.55874960146015
 6  4.04176981148115  3.62271643184318 -1.19609918121812
 6  2.75402415841584  3.24565626702670 -0.38957750475047
 6  6.00797880228023  2.21081295269527 -2.19452098089809
 6  4.56127692109211  5.05961747894789 -1.25271794369437
 6  6.92348990039004  3.18546496789679 -2.62285695379538
 1 -4.34487243794379  2.23002804770477  0.34550409240924
 1 -5.01120955005501 -0.54239923102310  1.23433468176818
 1 -4.93823394259426  0.89899412851285  2.03026516101610
 1 -2.82490990139014 -1.47561441894189 -0.17450984228423
 1 -3.44539023232323  0.74861793799380 -1.49149634693469
 1  0.54450103440344  0.18418839233923  3.64947027922792
 1  1.22196064006401 -0.49820970497050  2.36471479187919
 1 -0.66391688418842 -2.73063102640264  0.01925174357436
 1 -3.41114326632663  1.97209379467947  3.33834000160016
 1 -1.47046190559056  1.50986961446145  4.01102082668267
 1 -2.08296109540954  2.74268290409041  2.53186534053405
 1 -6.77201109620962  2.51479043114311  1.60316843564356
 1 -7.57452016031603  1.14514084248425  1.67025944854485
 1 -8.20694918621862  2.43063523362336  0.74892388958896
 1  1.16682886418642  1.94390699869987  1.49096910451045
 1  0.39942398249825  2.47961604940494  3.03430378487849
 1  1.71340695899590  0.33020941114111 -0.07357958405841
 1  1.85314357295730 -4.84607013021302 -1.78834689688969
 1  0.44089216961696 -4.50509042244224 -0.88489125882588
 1 -7.80513583858386  0.68706134013401 -3.25346625862586
 1  1.60634357445745 -4.70870517481748  1.27044673227323
 1  2.86972801570157 -5.05615209420942  0.53232717111711
 1  3.88083252705271 -4.10966849534954 -2.29794884748475
 1  5.03640576207621 -2.94149303010301 -1.37129205070507
 1  4.51270836713671 -2.54741679727973 -2.91480180248025
 1  4.83395620272027 -0.22225633443344 -2.17063375157516
 1 -9.24094361656166  0.94392528972897 -0.38760944714471
 1 -10.11844000910091  1.17983236163616 -1.97572731443144
 1  3.85056148754875  3.10806337493749  3.30871905410541
 1  6.27197220282028  1.16639084558456 -2.26423392659266
 1  4.74700571077108  5.14785787778778 -2.27101415641564
 1  3.67941594569457  5.88040511041104 -0.89244232743274
 1  5.32373414491449  5.07598405300530 -0.79757150525052
 1  1.41788932743274 -7.98637988048805  1.66088576167617
 1  7.73087436923692  2.69835714201420 -3.30031879407941
 1  6.64713615791579  4.21463903520352 -2.61292418151815

