%nproc=4
%Mem=2GB
# td=(NStates=1) B3LYP/SVP 

TD

0 1
 8 -5.50030539233923  0.17060117511751 -3.41363419621962
 8  2.99559638573857  3.08893461686169  3.29685594999500
 8  3.21546228402840  0.81195620472047  3.20414237543754
 8  1.50946508240824 -7.26867277167717  1.58866927672767
 8  0.95852260166017 -7.17574847884788 -0.65629956115612
 8  1.81744520382038  3.86837980498050  0.04563282768277
 7 -2.35082568526853 -0.78437344394439  0.49489601670167
 7 -4.39545344924492  0.53011726032603 -1.40290222232223
 7  1.88258798589859 -0.71904388538854 -0.34935637373737
 7  2.68312958335834  1.85973442354235 -0.45527300230023
 6 -4.65570781708171  1.30400057945795 -0.13656319981998
 6 -4.38811341674167  0.47901431913191  1.15260732143214
 6 -2.94286774297430  0.09863474587459  1.32110745084508
 6 -2.04102914721472  0.70565271227123  2.15240603880388
 6 -0.73397728522852  0.12664410591059  1.76510527272727
 6 -0.99595397039704 -0.82643775287529  0.79694640294029
 6 -6.18163426082608  1.57024878077808 -0.24036245004500
 6  0.56548003130313  0.32032995609561  2.51414608340834
 6 -6.62048448014801  0.96563886908691 -1.46381723942394
 6 -0.17983372537254 -1.89081438253825  0.28152532823282
 6  1.09738264946495 -1.88388090069007 -0.20149894309431
 6 -5.50053811191119  0.45423511671167 -2.19020846164616
 6  1.93509937983798 -2.96343991999200 -0.82590790739074
 6 -2.32799954115412  1.89211094309431  3.19592823282328
 6 -7.02570456265627  2.09526506250625  0.85271588548855
 6  3.07336286458646 -2.45340736503650 -1.30308146524652
 6  1.10681745434543  1.81044418661866  2.61953717211721
 6  3.02602914391439 -0.98609804920492 -1.01718534953495
 6  1.61127666556656 -4.41845622522252 -0.80868934283428
 6 -7.94009072997300  0.89805436983698 -2.10748547054705
 6  1.58816050615061 -5.12225846824682  0.50414674117412
 6  4.23718143454345 -3.24664593039304 -1.76001799919992
 6  4.03097203940394 -0.02020035823582 -1.28126832193219
 6  2.54677729312931  1.88167234153415  3.08285819091909
 6  3.77352187808781  1.31638089438944 -1.10670644134413
 6 -9.17071524452445  0.86709455325533 -1.46967573017302
 6  1.30613792219222 -6.57704643414341  0.44738553125313
 6  4.62836690159016  2.44069612461246 -1.44504823132313
 6  3.93765940044004  3.61050521072107 -1.12511208250825
 6  2.74503325932593  3.18354005540554 -0.48581712871287
 6  5.78982698709871  2.31412328372837 -2.24950647944794
 6  4.34749554295430  5.00443196039604 -1.15421809370937
 6  6.63187073847385  3.29568598999900 -2.59662433053305
 1 -4.15200315101510  2.34312935783578 -0.08390884888489
 1 -5.02071050015001 -0.48169316041604  1.35872712101210
 1 -4.74382450165017  1.22890711981198  1.95836797129713
 1 -3.02748015841584 -1.45576243374337 -0.10956334763476
 1 -3.44424011731173  0.42465554175418 -1.54255145244524
 1  0.52865945024503 -0.18365839233923  3.52526785898590
 1  1.35772421642164 -0.28826871087109  2.10609893029303
 1 -0.68683917641764 -2.79148711201120  0.14012383078308
 1 -3.43776592859286  2.03441002630263  3.24412057965796
 1 -2.13460832023202  1.33028165566557  4.38107783238324
 1 -1.59910270957096  2.70839947574758  2.80499265326533
 1 -6.59588348344835  2.99146809890989  1.50499861866187
 1 -7.30669337763776  1.26091241964196  1.48613103570357
 1 -7.93468195949595  2.51014318441844  0.35140413761376
 1  0.96220840214021  2.12681528952895  1.58105811341134
 1  0.54776881698170  2.46749483728373  3.15817617211721
 1  1.69345496379638  0.15049143934393  0.02163993789379
 1  2.04951320992099 -5.06713223642364 -1.60484854705471
 1  0.61027910831083 -4.41221113451345 -1.45770854055406
 1 -7.80125545054505  0.88540117411741 -3.24133504550455
 1  0.91617455755576 -4.77559186348635  1.32823251085108
 1  2.73791483438344 -5.04556103510351  0.93053699209921
 1  4.08856330013001 -4.30913844234423 -1.99296834943494
 1  5.31013313481348 -3.27026590739074 -1.13724864636464
 1  4.55337243354335 -2.81790384598460 -2.66819714201420
 1  4.97467027412741 -0.56993110191019 -1.77293398159816
 1 -9.18911843404341  0.68350924812481 -0.44686537273727
 1 -10.26213437853785  0.79860423882388 -1.83519326102610
 1  3.97459389078908  3.05162773137314  3.45859404160416
 1  6.11201620722072  1.25261946844684 -2.46864436763676
 1  4.20597160736074  5.77649074107411 -2.02499955495550
 1  3.78881688578858  5.56854392429243 -0.28277136033603
 1  5.24673644514451  5.23575002960296 -0.91029277737774
 1  1.25979351785178 -8.07469871237124  1.35872554565456
 1  7.51459274107411  2.90835814211421 -3.22283104530453
 1  6.46222766706671  4.39035660696070 -2.36505939503950

