%nproc=4
%Mem=2GB
# td=(NStates=1) B3LYP/SVP 

TD

0 1
 8 -5.50690605240524 -0.03865975097510 -3.29787262006201
 8  2.69735656175618  3.30882660606061  3.33090935533553
 8  3.16486722452245  1.18431344044404  3.46362832403240
 8  1.92532666856686 -7.48757466186619  1.15641605140514
 8  0.45408215761576 -6.94209511351135 -0.58087201840184
 8  1.93278673797380  3.87682064906491 -0.18273000860086
 7 -2.33059366206621 -1.00068507510751  0.72126865396540
 7 -4.53687759165917  0.49536378497850 -1.23467539963996
 7  1.83170289738974 -0.66496847784778 -0.31025246334633
 7  2.87460873127313  1.76724517461746 -0.49530700570057
 6 -4.90031227752775  1.15811599099910 -0.03542308580858
 6 -4.52462706810681  0.34579099679968  1.28007006770677
 6 -3.01198465466547  0.02873775617562  1.37285262536254
 6 -2.05056010031003  0.73893604060406  2.13658445664566
 6 -0.78546243374337  0.15622706420642  1.75596435863586
 6 -1.05851022602260 -0.92442755185519  0.95674238253825
 6 -6.32119821722172  1.33080483638364 -0.23695210901090
 6  0.50959444274427  0.47347527062706  2.48118278707871
 6 -6.73327575927593  0.89788209340934 -1.39216007370737
 6 -0.25327106910691 -1.93377867896790  0.23112028772877
 6  1.03317622882288 -1.83599611221122 -0.27291608480848
 6 -5.56524458255826  0.26658635183518 -2.12253169396940
 6  1.83708957885789 -2.94070764676468 -0.87363267986799
 6 -2.23991073227323  1.83186491849185  3.23138177817782
 6 -7.19779177137714  2.10764630063006  0.74642525642564
 6  3.01656718501850 -2.34747677197720 -1.19860101720172
 6  1.03665043764376  1.91878502070207  2.46472169056906
 6  3.07863440444044 -0.96576601600160 -0.94304793579358
 6  1.42968850675068 -4.35698007760776 -0.95846432033203
 6 -8.04490121102110  0.89943450785079 -2.11059578157816
 6  1.79828151825183 -5.17771401380138  0.28240456695670
 6  4.27948566496650 -3.14747601340134 -1.70527252465247
 6  4.09385832803280 -0.01595993419342 -1.14334452955295
 6  2.47809042444244  2.10868504280428  3.08637854295430
 6  3.93262778867887  1.35863511981198 -0.99799557025703
 6 -9.29218739173917  1.08876672047205 -1.41210997359736
 6  1.25391269966997 -6.56926565606561  0.18130892359236
 6  4.80619468436844  2.43224527952795 -1.48204193069307
 6  4.16800243474347  3.59815397559756 -1.18732830413041
 6  2.86210496649665  3.16577827922792 -0.50987953495350
 6  6.15687369176918  2.22133400480048 -2.13020454925493
 6  4.54443523692369  4.97790930813081 -1.38500117201720
 6  7.16003355475548  3.10277669906991 -2.49341400950095
 1 -4.48164611531153  2.18425347024702 -0.01908236623662
 1 -5.17973640274027 -0.48495348644864  1.50598184648465
 1 -4.75871599079908  1.04460868996900  2.21915404990499
 1 -2.85484289468947 -1.96121297879788  0.25547315601560
 1 -3.51963765706571  0.29675275147515 -1.58755595289529
 1  0.45827241154116  0.07772774627463  3.38377370957096
 1  1.29710815481548 -0.24646453045304  1.97698601900190
 1 -0.61262175467547 -2.85306326962696 -0.05034521612161
 1 -3.46768892089209  2.26779336463646  3.26076224382438
 1 -1.84986984638464  1.38708733623362  4.08737846244625
 1 -1.45897869716972  2.68056669246925  2.83354550855086
 1 -6.64516841194119  2.85899485158516  1.28559667846785
 1 -7.85961867016702  1.34935126352635  1.44356677927793
 1 -7.97595608690869  2.90749291939194  0.28194719191919
 1  1.16659884118412  2.28977158515852  1.28647865546555
 1  0.36537057715772  2.76653474127413  3.01216157065707
 1  1.67655327362736  0.40124651485148 -0.24378660476048
 1  1.87921618021802 -4.67874339753975 -1.97170523272327
 1  0.27946602700270 -4.30741065446545 -1.04097686738674
 1 -8.01564688968897  0.87257989198920 -3.24152506450645
 1  1.38917185728573 -4.50626493079308  1.12652233983398
 1  2.75682672557256 -5.16455293429343  0.47857179557956
 1  3.85655009880988 -4.20124765326533 -1.67778683128313
 1  5.05156727822782 -2.94457333813381 -0.97596251775178
 1  4.26627372367237 -3.00364241984198 -2.85510583288329
 1  5.03091589868987 -0.43303741254125 -1.61877856605661
 1 -9.19186870907091  0.98476937413741 -0.30326101230123
 1 -10.11958012311231  1.01882626102610 -1.92282202390239
 1  3.48154458585859  3.19884245284528  3.78754693689369
 1  6.28444344994499  1.01083529002900 -2.23505100830083
 1  4.85645665586559  5.30043313531353 -2.32230928592859
 1  3.80473847794779  5.68231530143014 -1.04490757395740
 1  5.57477924942494  5.32741919651965 -0.75033678177818
 1  1.55159269776978 -8.30296153865386  0.97537721082108
 1  8.29913119491949  2.63913121942194 -2.67358612081208
 1  7.15832727702770  4.25756332763276 -2.21700458955896

