%nproc=4
%Mem=2GB
# td=(NStates=1) B3LYP/SVP 

TD

0 1
 8 -5.61246660846085  0.28879299429943 -3.32402523532353
 8  2.91145797189719  3.06065178857886  3.24615087948795
 8  3.23443418121812  0.85244025312531  3.13414537573757
 8  1.55611974787479 -7.31327723212321  1.26512692249225
 8  0.14309105850585 -6.77659856385639 -0.46116004720472
 8  2.02987644694469  4.16519948694870 -0.22917465306531
 7 -2.36644724742474 -0.85707071367137  0.48079460656066
 7 -4.53028693259326  0.71426567516752 -1.35493742584258
 7  1.91042076917692 -0.66324830583058 -0.31103254135414
 7  2.77413868426843  1.93962241234123 -0.45937341234123
 6 -4.93454570087009  1.23138331773177 -0.00385992949295
 6 -4.49489409480948  0.29489590729073  1.05895795649565
 6 -2.97955141134113  0.11514639703970  1.24848018811881
 6 -1.99842488678868  0.68831097809781  2.04922572077208
 6 -0.76395028252825  0.07364880638064  1.75147390959096
 6 -1.02498687368737 -0.88979408850885  0.76622333063306
 6 -6.45440153755376  1.30359211511151 -0.16775518931893
 6  0.56255973927393  0.37813573667367  2.56521118991899
 6 -6.78985141684168  0.83792609780978 -1.37174803250325
 6 -0.15591133313331 -1.87514281538154  0.12296947264726
 6  1.10333324452445 -1.81980449304930 -0.28313710691069
 6 -5.59170722882288  0.55051474467447 -2.18868830963096
 6  1.97133300320032 -2.89107268326833 -0.84065938253825
 6 -2.39440618181818  1.69650138213821  3.06554519451945
 6 -7.21947393959396  1.84814035003500  0.95585619951995
 6  3.14469999829983 -2.35616764106411 -1.12822397949795
 6  1.09358613121312  1.79328247044704  2.37483270167017
 6  3.19284582558256 -0.98686812621262 -0.76556018701870
 6  1.52522806070607 -4.34637901750175 -0.71242971687169
 6 -8.07293401430143  0.76783134753475 -1.99599432143214
 6  1.83727541764176 -5.18914515691569  0.47610393689369
 6  4.53131084748475 -3.03954522032203 -1.66153815121512
 6  4.15928487068707  0.00392205400540 -1.00896109120912
 6  2.50557317271727  1.82275644994499  2.94257416251625
 6  3.91499602550255  1.41721097739774 -0.93479925062506
 6 -9.23454162716272  0.52979082288229 -1.36646540914091
 6  1.06468377677768 -6.56286501600160  0.36287708040804
 6  4.81849591449145  2.47583963896390 -1.38580230673067
 6  4.25636127062706  3.68969312951295 -1.07837740904090
 6  2.92718147414741  3.31535323672367 -0.46961550855086
 6  6.16003400780078  2.22605447684768 -1.89916144494449
 6  4.61622241564156  5.07042856005601 -1.36469914181418
 6  6.79331688308831  2.98390481188119 -2.79500416851685
 1 -4.43767171787179  2.05563060796080  0.28478802080208
 1 -4.79373780288029 -0.81927691879188  0.87905915421542
 1 -4.80297041624162  0.58902313141314  2.08048018251825
 1 -2.56654406480648 -1.35392224972497 -0.34449684098410
 1 -3.59358505180518  0.88811188738874 -1.67824502180218
 1  0.48392497679768  0.32007198069807  3.64714004620462
 1  1.29033747774777 -0.37781766576658  2.26750507090709
 1 -0.50017050955095 -2.85586354965497 -0.18372855445545
 1 -3.61306345834583  1.64006059135914  3.36231239883988
 1 -1.80341520092009  1.67314594209421  4.09488921352135
 1 -2.21420421972197  2.70200883668367  2.59135128912891
 1 -6.85577947304730  2.73466241834183  1.44526264506451
 1 -7.47468017631763  1.10271660006001  1.71178360096010
 1 -8.05733422472247  2.11660383048305  0.33344234143414
 1  1.19298147944794  2.13137574557456  1.29468947654766
 1  0.48799283938394  2.67731581938194  2.66378673317332
 1  1.91710732903290  0.27029341954195 -0.09086131223122
 1  2.05701395999600 -4.94078960216022 -1.50724878707871
 1  0.43684176457646 -4.12363227662766 -1.00579334903490
 1 -8.12228755375538  0.83744637863786 -3.08621953395340
 1  1.45856879697970 -4.95860016431643  1.43991367896790
 1  2.99350039293929 -5.32030850985099  0.41411534993499
 1  4.46035047884788 -3.98477600610061 -2.21317036963696
 1  5.29366148764877 -3.08125700650065 -0.80254517601760
 1  5.08400549684969 -2.39546160176018 -2.61027134943494
 1  5.21825463256326 -0.36682079087909 -1.23892058025803
 1 -9.61012053425343  0.37499839703970 -0.31639232543254
 1 -10.16041420652065  0.49890426882688 -1.95817555925593
 1  3.79408583998400  2.94010657925793  3.59493767596760
 1  6.58817382298230  1.20251445794579 -1.66548405160516
 1  4.16809781998200  5.62051514351435 -2.30374742974297
 1  4.22322032613261  5.64218128802880 -0.38445152835284
 1  5.92646441794179  4.79665612021202 -1.37938968706871
 1  1.10101764026403 -8.10918216071607  1.09494916801680
 1  7.86046732853285  2.70191749804981 -3.09209797199720
 1  6.69618106240624  3.99631720302030 -3.37643053215322

