%nproc=4
%Mem=2GB
# td=(NStates=1) B3LYP/SVP 

TD

0 1
 8 -5.48801416321632  0.13611772677268 -3.35523835663566
 8  3.01834866096610  3.09346506990699  3.14481074547455
 8  3.22324306210621  0.88968397749775  3.23391535273527
 8  1.40406454235424 -7.24693059745975  1.48031844164416
 8  0.46612336173617 -6.96539744374437 -0.56379031023102
 8  1.85753921322132  3.95147811481148 -0.16786852245225
 7 -2.28953955665567 -0.96730173677368  0.51134766186619
 7 -4.40577448134813  0.46604085268527 -1.31017294939494
 7  1.93232295939594 -0.69998197919792 -0.24569600770077
 7  2.69868113851385  1.83514196429643 -0.53200067506751
 6 -4.79868211451145  1.11932211161116 -0.02207175067507
 6 -4.43286789218922  0.16112252995300  1.15768782948295
 6 -3.00985444164416 -0.06105122272227  1.33064840494049
 6 -2.01633667796780  0.58071021802180  2.10094089228923
 6 -0.68788267576758  0.04373581508151  1.84133289548955
 6 -0.90788516351635 -0.88279338843884  0.83734044234423
 6 -6.22685878327833  1.42181393729373 -0.20676909070907
 6  0.61186466976698  0.28018594169417  2.60860552935294
 6 -6.63559599129913  1.03110541574157 -1.42539339703970
 6 -0.15442118411841 -1.93762906400640  0.27019419511951
 6  1.10266317751775 -1.79843235583558 -0.28242703590359
 6 -5.49548760686069  0.50075976917692 -2.12907234803480
 6  1.89956582648265 -2.93431700770077 -0.76007132373237
 6 -2.35965270647065  1.63944567656766  3.17794643464346
 6 -7.07498949114911  2.13043857985799  0.84047466136614
 6  3.17201272957296 -2.33977600190019 -1.10264142124212
 6  1.05450222282228  1.67837097929793  2.72381760016002
 6  3.07270381138114 -0.86564600400040 -0.79946357735774
 6  1.51336687458746 -4.39549392899290 -0.83977245114511
 6 -7.93697041794179  0.93184774917492 -2.12486720872087
 6  1.76385807590759 -5.14243048544855  0.53456978347835
 6  4.31950966736674 -3.14885615141514 -1.74845684308431
 6  4.04216315851585  0.04166582838284 -1.18589878497850
 6  2.51798441384138  1.77562173647365  3.04747465256526
 6  3.83565809170917  1.43623287958796 -1.10641641234123
 6 -9.22196036903690  1.11878972277228 -1.58101686428643
 6  1.15903321172117 -6.54283301280128  0.38784957765777
 6  4.67738180308031  2.56275833083308 -1.57275100160016
 6  3.97986362086209  3.68487264746475 -1.20275984728473
 6  2.72333108910891  3.22851455285529 -0.54674322132213
 6  6.05093309770977  2.39070094149415 -2.07434896369637
 6  4.26959775317532  5.18129964716472 -1.49248192009201
 6  6.86351390279028  3.25987240864086 -2.54809947804780
 1 -4.24472242294229  1.96896194109411  0.16690623262326
 1 -4.90737916701670 -0.83466845794579  1.06819806810681
 1 -4.58561868106811  0.54367859695970  2.09358149264926
 1 -2.77545495589559 -1.63475033253325 -0.08416080738074
 1 -3.31057675097510  0.24904798099810 -1.53203040034003
 1  0.54942152645264 -0.22927295379538  3.55542087428743
 1  1.34600304430443 -0.48145802980298  2.13835215561556
 1 -0.61633212571257 -2.83492145544554 -0.05074525612561
 1 -3.43777592959296  1.80015660096010  3.21025719331933
 1 -1.91376623602360  1.31857048454845  4.27991771637164
 1 -1.91781458075808  2.55401403720372  2.73065521952195
 1 -6.57645154025403  2.90994994709471  1.32027014581458
 1 -7.50705341364136  1.37236356475648  1.56913933653365
 1 -7.91010950225022  2.60207237733773  0.32457145434543
 1  1.02260444174417  2.17871047904790  1.64066407400740
 1  0.54899893999400  2.36458454625463  3.38843919841984
 1  1.71181679998000  0.19569595979598 -0.17760998709871
 1  1.87451571017102 -4.85822134533453 -1.64295235743574
 1  0.20778885928593 -4.49119903330333 -1.12266503620362
 1 -7.76323164816482  0.67883051705170 -3.30790170217022
 1  1.64691763186319 -4.55192949724973  1.46385607320732
 1  2.75124616751675 -5.27344382338234  0.60559449784979
 1  4.13190763456346 -4.18239576807681 -1.88700775337534
 1  5.25400752225223 -2.96856573737374 -1.15302022352235
 1  4.65514261056106 -2.70951300690069 -2.77092741504150
 1  4.93904671177118 -0.41209531833183 -1.69685637383738
 1 -9.31103062526253  1.32337323452345 -0.43917460366037
 1 -9.97789595469547  1.22010638903890 -2.40490023172317
 1  3.98513494489449  2.92209477807781  3.24943312551255
 1  6.40531553715372  1.48744295079508 -2.08120562376238
 1  4.53640465066507  5.32044513651365 -2.52466952195220
 1  3.38126613071307  5.90142721262126 -0.91564464766477
 1  5.24481625312531  5.27942439703970 -1.01782353045305
 1  0.95304284278428 -8.02280352285228  1.29419909300930
 1  7.87270855265526  2.99745705200520 -2.96176493869387
 1  6.46136758105811  4.34892246354636 -2.42823571267127

