%nproc=4
%Mem=2GB
# td=(NStates=1) B3LYP/SVP 

TD

0 1
 8 -5.37417277907791  0.14945906090609 -3.32966579937994
 8  2.93479030513051  3.13297902130213  3.18291455585559
 8  3.21060179797980  0.88499350845085  3.47505946714671
 8  1.30862499839984 -7.05086099049905  1.56240665046505
 8  0.43617036643664 -6.99385028902890 -0.53982791399140
 8  1.95130859015902  3.98913188018802 -0.20787252285229
 7 -2.38639924262426 -0.86528153475348  0.51219774687469
 7 -4.39292319621962  0.79833408200820 -1.22879481158116
 7  1.89530925802580 -0.62767474847485 -0.36447788588859
 7  2.72079334973497  1.79765821592159 -0.74372184718472
 6 -4.86174842114211  1.32683286268627  0.01205166166617
 6 -4.46348095349535  0.42208862656266  1.18248030873087
 6 -2.96494995119512  0.10381526392639  1.34313965406541
 6 -1.96457150145014  0.61854400140014  2.14726552475248
 6 -0.81978586608661  0.05826726822682  1.83409217141714
 6 -1.06298067306731 -0.99083419251925  0.76610331863186
 6 -6.38539463686369  1.38401015691569 -0.20283869766977
 6  0.51941542484248  0.22111003410341  2.62142681148115
 6 -6.68727115881588  0.89957226242624 -1.41104196189619
 6 -0.17325306730673 -1.92791809290929  0.25283245894589
 6  1.10397330853085 -1.80053256585659 -0.21311010421042
 6 -5.45094315241524  0.52423211641164 -2.14330377117712
 6  1.88379424932493 -2.92341591759176 -0.69451476807681
 6 -2.22603934513451  1.70976270827083  3.16037467746775
 6 -7.25993798599860  1.92586812281228  0.89621023492349
 6  3.05061058935894 -2.37528955325533 -1.19628078517852
 6  1.04624139673967  1.60156329852985  2.55375059345935
 6  3.05545208620862 -0.99808924832483 -0.91517514851485
 6  1.34466000390039 -4.29540391999200 -0.90662913681368
 6 -7.91917863876388  0.60936550095009 -2.08282300430043
 6  1.85576726682668 -5.18041428382838  0.25923224972497
 6  4.23011072747275 -3.09076034183418 -1.80237223462346
 6  4.00437938013801  0.04829649144915 -1.21550174527453
 6  2.47108972437244  1.85073924822482  3.12991289638964
 6  3.83638816471647  1.38969822612261 -1.20507627832783
 6 -9.06995516851685  0.52159000280028 -1.53889265186519
 6  1.13168047644764 -6.47406613611361  0.36444723742374
 6  4.77478154305431  2.54919697469747 -1.56774050055005
 6  4.23593922842284  3.67316147634764 -1.15172474377438
 6  2.82231098709871  3.18994069546955 -0.68064661166117
 6  6.14995299969997  2.31573344474447 -2.17388891769177
 6  4.55609640304030  5.13192470967097 -1.18477114901490
 6  7.08626617801780  3.25205162656266 -2.52680734883488
 1 -4.43183113381338  2.33150819571957  0.26980652265227
 1 -5.09952838193819 -0.62436742784278  1.02165341364136
 1 -4.84423454265427  0.88526275537554  1.92722485698570
 1 -2.94166157655766 -1.56850370787079 -0.13307569886989
 1 -3.46617231053105  0.70117319351935 -1.50623782108211
 1  0.22362894719472 -0.20540056655666  3.72222755495550
 1  1.35209365336534 -0.28866875087509  2.43302162256226
 1 -0.65337583008301 -2.83499146244624  0.04213403180318
 1 -3.33431558355836  1.58357494279428  3.67596376397640
 1 -1.55595045444544  1.59072770027003  4.10306003060306
 1 -1.93991679097910  2.74682331813181  2.83839599359936
 1 -6.74611850695070  2.54586353845385  1.63919203800380
 1 -7.49413212151215  1.22619894829483  1.70246266886689
 1 -8.07894638593859  2.29155132523252  0.53870286748675
 1  1.30420260156016  1.96956956495650  1.68016802440244
 1  0.41782582268227  2.44706279407941  3.03748410291029
 1  1.64032965126513  0.51907829802980 -0.44763698979898
 1  1.92313057165717 -4.72039756295630 -2.02165022722272
 1  0.19435751615162 -4.35217513091309 -1.16232900260026
 1 -7.88381370637064  0.59228186218622 -3.04154506650665
 1  1.80535347544754 -4.60083438773877  1.27105679327933
 1  3.01998304120412 -5.38064454345434  0.19136307470747
 1  3.89375381918192 -4.29591712021202 -1.90115916851685
 1  5.16448857035704 -3.08634751555156 -1.16386130763076
 1  4.65349244554455 -2.77303935953595 -2.69651997429743
 1  5.01009381648165 -0.27195130393039 -1.58603529172917
 1 -9.41624114631463  0.33656455365537 -0.57040772697270
 1 -9.98145631073107  0.28934331273127 -2.07211695339534
 1  3.87248367976798  3.00216278487849  3.69446762896290
 1  6.30469547514751  1.09903410991099 -2.24713221642164
 1  4.79989099929993  5.44432752475247 -2.29740679567957
 1  3.77797580168017  5.68942601250125 -0.73113619681968
 1  5.70319209070907  5.04106056065607 -0.82442419051905
 1  0.91775931443144 -7.97358860136014  1.76358603170317
 1  8.12826410821082  2.95647295359536 -2.81939070127013
 1  6.77148859315932  4.32489006030603 -2.68976186528653

