%nproc=4
%Mem=2GB
# td=(NStates=1) B3LYP/SVP 

TD

0 1
 8 -5.35764112591259  0.20527464246425 -3.30756358915892
 8  2.93227005310531  3.03827955135514  3.35380164456446
 8  3.25702644044404  0.86118112721272  3.18539050025002
 8  1.42732686858686 -7.33323922832283  1.40387079687969
 8  0.57564431383138 -6.92720362436244 -0.57233116431643
 8  1.82767622692269  4.01404437143714 -0.30032176777678
 7 -2.34870547324732 -0.75750075667567  0.42667919501950
 7 -4.42840674457446  0.79147339593959 -1.24554648674867
 7  1.89989971707171 -0.71184316531653 -0.45823726182618
 7  2.66946821722172  1.84459290939094 -0.48982645764576
 6 -4.93054530083008  1.22879305870587  0.09555001150115
 6 -4.40422502790279  0.32412883058306  1.21976403710371
 6 -2.91319477567757  0.06775165756576  1.32718805890589
 6 -2.02698774307431  0.60937308430843  2.10189098729873
 6 -0.72692658015802  0.13457489898990  1.85650441264126
 6 -0.95062943794379 -0.84517962706271  0.82758946724672
 6 -6.34993109050905  1.31790354625463 -0.11073948774877
 6  0.54779826312631  0.35233315641564  2.47877254605461
 6 -6.79663209490949  0.89666197139714 -1.34600545824582
 6 -0.16689243124312 -1.91071637273727  0.11807898359836
 6  1.11775468666867 -1.83064557715772 -0.28557735093509
 6 -5.49672773087309  0.60327002020202 -2.16635607640764
 6  2.03410928082808 -2.91508508450845 -0.74368968556856
 6 -2.30630737193719  1.70419215121512  3.15299393939394
 6 -7.33496548874888  1.82421795779578  0.99766037993799
 6  3.24914044234423 -2.44365638993899 -1.06232738983898
 6  1.00359713231323  1.80512365456546  2.53838905730573
 6  3.21951849284928 -1.01671111051105 -0.85917954895490
 6  1.51376691459146 -4.38975335493549 -0.90434890879088
 6 -7.99973669456946  0.88051261566157 -2.11437615961596
 6  1.56923861396140 -5.16083232563256  0.50808713521352
 6  4.42835055145515 -3.04698596439644 -1.66079807720772
 6  4.13139208140814 -0.04701303950395 -1.12939313441344
 6  2.48560117551755  1.86088026232623  3.06671657675768
 6  3.75636016191619  1.39977923422342 -0.99753552425243
 6 -9.24127230023002  0.80777862166217 -1.60694945754575
 6  1.11963927232723 -6.51863059255926  0.39078987168717
 6  4.83682774767477  2.48124017901790 -1.39125285178518
 6  4.05987162166217  3.64070823102310 -1.12526209750975
 6  2.74647340334033  3.24738644004400 -0.65828437543754
 6  6.15891389578958  2.25013688508851 -2.04633616241624
 6  4.36381717511751  5.08421993919392 -1.43098577047705
 6  6.96219377077708  3.10295671707171 -2.70724539263926
 1 -4.60029798049805  2.37608265316532  0.06816635863586
 1 -4.96039446854686 -0.51922691379138  1.00836208450845
 1 -4.82171229042904  0.58667289638964  2.12070420492049
 1 -2.91288869926993 -1.15980283778378 -0.29165155645565
 1 -3.48210390369037  0.85706878307831 -1.57656485378538
 1  0.73686027032703 -0.32605263176318  3.52708804100410
 1  1.55539398339834 -0.16852673667367  1.83028134853485
 1 -0.74334482698270 -3.01117908120812  0.08488830723072
 1 -3.33769592159216  1.94606119141914  3.73799996759676
 1 -1.53263812321232  1.74031265876588  3.94016374097410
 1 -2.16940974027403  2.85716435223522  2.64749690369037
 1 -6.87087098219822  2.19428838093809  1.90850896969697
 1 -7.85680838913891  0.71787811621162  1.28352077467747
 1 -8.18877736903690  2.40116228632863  0.49418841604160
 1  0.96289847114711  2.28625123312331  1.48959896749675
 1  0.57251129122912  2.49233732153215  3.46846720122012
 1  1.81904752305231  0.28784517471747 -0.41538376447645
 1  2.12941119971997 -4.95697122032203 -1.56289435163516
 1  0.49215729612961 -4.34911482488249 -1.31505427512751
 1 -7.71639696469647  0.82253488748875 -3.10007091909191
 1  0.85706864696470 -4.75772007630763  1.36577626522652
 1  2.58250929382938 -5.00699717871787  0.90713465186519
 1  4.21752619641964 -3.97841537003700 -1.85122417501750
 1  5.29635175667567 -2.99646852765276 -0.94888981048105
 1  4.86034313061306 -2.60822287788779 -2.52584290659066
 1  5.09791259835984 -0.25198930773077 -1.59107579577958
 1 -9.47758728092809  1.00212110931093 -0.56259694589459
 1 -10.11457962306231  0.60559493789379 -2.31822156385639
 1  3.80568700010001  2.95857842644264  3.68458664086409
 1  6.49245425102510  1.20938514501450 -1.97102460566057
 1  4.71193220342034  5.07873096509651 -2.63026008100810
 1  3.16451445554555  5.64233130303030 -1.44472755595560
 1  5.12747451895189  5.65149160376038 -0.89164091219122
 1  1.21249878837884 -8.39353059555956  1.11037071017102
 1  8.07837911971197  2.72021932823282 -3.05034379657966
 1  6.66333777807781  4.18123569486949 -2.74533742284228

