%nproc=4
%Mem=2GB
# td=(NStates=1) B3LYP/SVP 

TD

0 1
 8 -5.44061942374237  0.18310242524252 -3.34557739053905
 8  2.89250607670767  3.13081880528053  3.19340560496050
 8  3.26959769756976  0.88940394949495  3.07125908710871
 8  1.70227436333633 -7.25536144054405  1.47909831963196
 8  0.24754150355035 -6.87353825782578 -0.32574650585059
 8  1.91023448274827  3.90047301430143 -0.09612134773477
 7 -2.30447104980498 -0.94277928452845  0.59725625272527
 7 -4.49142304620462  0.37672192079208 -1.24786671877188
 7  1.89771949904991 -0.71795377637764 -0.41791322942294
 7  2.66465773617362  1.85695414551455 -0.58291576657666
 6 -4.84580682698270  1.02414259365937 -0.02200174367437
 6 -4.49447405280528  0.25549196689669  1.19408146884688
 6 -2.99793324952495  0.04961984438444  1.34261960206021
 6 -2.02213725802580  0.65512765976598  2.16918771697170
 6 -0.68533242074207  0.12776421792179  1.79377814001400
 6 -0.89054342934293 -0.93059816891689  0.86552326062606
 6 -6.29562565996600  1.34696645254525 -0.15802421622162
 6  0.50870435373537  0.37393531663166  2.49843451225123
 6 -6.73884631633163  0.88725103030303 -1.44176503420342
 6 -0.10528627062706 -1.98225352645265  0.18198537423742
 6  1.09281219241924 -1.76926943954395 -0.21859065226523
 6 -5.57856591469147  0.42474216741674 -2.25204464526453
 6  1.92191806170617 -2.94659823582358 -0.79905522212221
 6 -2.25561230243024  1.81606333833383  3.11675031503150
 6 -7.05696768896890  1.99420495649565  0.83224383828383
 6  3.16778230653065 -2.30229225352535 -1.29000015711571
 6  1.14268104070407  1.77025016721672  2.47270248864886
 6  3.12303884488449 -1.04101354075408 -0.98134176517652
 6  1.52385792369237 -4.29650403000300 -0.80743921782178
 6 -8.01426814771477  0.92057662206221 -2.05351007300730
 6  1.62757444754475 -5.07478372077208  0.46359268576858
 6  4.30164788118812 -3.05541680748075 -1.98044004140414
 6  4.01371031323132 -0.01314965316532 -1.33110330543054
 6  2.46193880928093  1.80494466876688  2.99317922302230
 6  3.76001052695270  1.40766002230223 -1.20299607030703
 6 -9.31480965396540  0.94258210201020 -1.58759752235223
 6  1.01981929032903 -6.43251198069807  0.52195298799880
 6  4.77437150205021  2.51629368436844 -1.33129685618562
 6  4.14871050555055  3.63955811601160 -1.02072164346435
 6  2.82865162116212  3.18076977837784 -0.56409495649565
 6  6.15357336173617  2.30882275367537 -1.91934346314631
 6  4.55472626602660  5.01594311151115 -1.12353502540254
 6  6.87263481488149  3.32599902130213 -2.41098576667667
 1 -4.42182013271327  1.90430547544754  0.19038858085809
 1 -5.00006843594359 -0.69306429752975  0.90992224052405
 1 -4.84731485068507  0.56589081818182  2.25701783628363
 1 -2.64540195059506 -1.67025388288829 -0.11051344264426
 1 -3.54426011931193  0.48401147734773 -1.71232843014301
 1  0.42656924122412 -0.05465549204920  3.52666799899990
 1  1.46192463646365 -0.34017390139014  2.22120044044404
 1 -0.56269676217622 -2.91420938423842 -0.06901708330833
 1 -3.43003515551555  1.70140672597260  3.42427859545954
 1 -1.82480734013401  1.65728435593559  4.11438116271627
 1 -1.55743854315432  2.75316395219522  2.82432458645865
 1 -6.45211910701070  2.85278423052305  1.10979909870987
 1 -7.28387109540954  1.33204953335334  1.84297672027203
 1 -7.97310580188019  2.49320149024903  0.36439543674367
 1  1.36252843414342  1.91388399639964  1.35247525512551
 1  0.51867590769077  2.54709279707971  2.80191054555456
 1  1.86798241654165  0.24177056725673 -0.12899512561256
 1  1.89109736833683 -4.91376689988999 -1.59278734093409
 1  0.52226030643064 -4.44266417981798 -1.26173894359436
 1 -8.08813413841384  0.79500213421342 -3.12201311331133
 1  1.43180612071207 -4.43180748504851  1.35449513711371
 1  2.87657870077008 -5.21337781678168  0.57588152655266
 1  3.87767221102110 -4.16844437293729 -2.01123017561756
 1  5.27379950145015 -2.91042992379238 -1.37749267076708
 1  4.32861995829583 -2.80255231083108 -3.11083140544054
 1  4.92485529262926 -0.18097220602060 -1.77774446264626
 1 -9.50635015721572  0.82451334853485 -0.37589827602760
 1 -10.21281944704470  1.29116349474948 -2.11612135383538
 1  3.94780121152115  3.06820938953895  3.40509869206921
 1  6.50920592619262  1.35922012851285 -1.95442294549455
 1  4.85562657285729  5.28845193719372 -2.14868192319232
 1  3.69349735383538  5.48559562946295 -0.69431251445145
 1  5.61397316881688  5.25015146974697 -0.58269001710171
 1  1.01265880438044 -7.98529977247725  1.31971164426443
 1  7.90200148194820  3.03767107340734 -2.82603136533653
 1  6.74023546784678  4.47018458975898 -2.53769665876588

