%nproc=4
%Mem=2GB
# td=(NStates=1) B3LYP/SVP 

TD

0 1
 8 -5.53972933473347 -0.13886977197720 -3.28673150595059
 8  2.81921874797480  3.17449317271727  3.36064232863286
 8  3.35494623242324  0.95103011211121  3.28658061926193
 8  1.50143427932793 -7.24732063646365  1.34802521232123
 8  0.32960971037104 -6.96978788278828 -0.48124205540554
 8  1.95111857115712  4.00665363236324 -0.13187492309231
 7 -2.26850745344534 -0.84955996259626  0.45837236433643
 7 -4.44160806470647  0.63590783938394 -1.35691762386239
 7  1.98716844394439 -0.75308728972897 -0.33032447054705
 7  2.70176144654465  1.85916436653665 -0.55580305530553
 6 -4.86372861916192  1.25680585998600 -0.05368491199120
 6 -4.36166077147715  0.31808822652265  1.21578363906391
 6 -2.95803926012601  0.07633251565157  1.27653299339934
 6 -1.97566261056106  0.73188533553355  2.16980777897790
 6 -0.74401828932893  0.13617505900590  1.79652841504150
 6 -0.90749512451245 -0.80960606970697  0.78254496279628
 6 -6.39273537093709  1.41705346124612 -0.18279669346935
 6  0.56893037633763  0.32349027212721  2.51274594339434
 6 -6.74415684738474  0.96248855405541 -1.41882273997400
 6 -0.20989673167317 -1.86854215531553  0.16279345504550
 6  1.13449636083608 -1.82091460406041 -0.30014880808081
 6 -5.60227828592859  0.40678037123712 -2.20207964876488
 6  2.02380825072507 -2.96312988898890 -0.85487080368037
 6 -2.31292803400340  1.71341307330733  3.30666930693069
 6 -7.18243023522352  2.16042157815782  0.81359197309731
 6  3.19606513481348 -2.47529955425543 -1.10689184628463
 6  1.13140991359136  1.76509965216522  2.52062728112811
 6  3.24587112811281 -1.04277371677168 -0.84788841984198
 6  1.52587812571257 -4.32916729632963 -0.97158563246325
 6 -8.12715943684369  0.80733529792979 -1.96005072707271
 6  1.69712140224022 -5.08119436183618  0.33707003350335
 6  4.40105782218222 -3.09793105890589 -1.67804980238024
 6  4.10794973717372  0.01843350515051 -1.19687988308831
 6  2.50286290169017  1.80467464176418  3.07763766886689
 6  3.81183570947095  1.31995125142514 -0.98032380308031
 6 -9.28642681568157  0.82809065286529 -1.53894265686569
 6  1.12998030643064 -6.55989471897190  0.31918271097110
 6  4.74233829872987  2.48522057705771 -1.44400812731273
 6  4.16911254575458  3.64864902510251 -1.12042161346135
 6  2.75153390939094  3.27916961836184 -0.50870941794179
 6  6.13682168656866  2.25395726712671 -2.10967249604961
 6  4.31091188458846  5.08468998619862 -1.30707337923792
 6  6.93231078247825  3.12311873327333 -2.63226789488949
 1 -4.43926187688769  2.13826887178718  0.07983752575258
 1 -5.02842127122712 -0.53961895299530  0.98105935423542
 1 -4.85407552675268  0.86925115421542  2.02622475697570
 1 -2.83109051945195 -1.40841769926993 -0.32713510481048
 1 -3.58683437673767  0.80965404160416 -1.91424862216222
 1  0.33697028132813 -0.24808483498350  3.45177050925093
 1  1.14074251825183 -0.36702658665867  2.04348266866687
 1 -0.70809130163016 -2.84709267256726 -0.04778496009601
 1 -3.40978313031303  1.76022260756076  3.51635780338034
 1 -1.68995385478548  1.17923655115512  3.97684740934093
 1 -1.92929572887289  2.82032066786679  3.21273342734273
 1 -6.43712760786079  2.66162511461146  1.47718583738374
 1 -7.98407111541154  1.51322765116512  1.49934235683568
 1 -8.01621011231123  2.77187935803580  0.26168516571657
 1  0.98099028032803  2.10216282428243  1.51017102470247
 1  0.52963700380038  2.38444653245324  3.13108346284629
 1  1.80523614191419  0.15727211741174 -0.10164239033903
 1  2.00971923052305 -4.93650917411741 -1.68354641684168
 1  0.43529160956096 -4.40491040444044 -1.26975974567457
 1 -8.08973429842984  0.47309994399440 -3.00715162716272
 1  1.02425536563656 -4.63596790109011  1.18829851745174
 1  2.70790183308331 -5.32876935593559  0.78527246564656
 1  4.40354479827983 -4.18653618211821 -1.45846489908991
 1  5.47250937243724 -2.85708458925893 -1.15058998049805
 1  4.57165426172617 -2.58998105370537 -2.73949427172717
 1  5.09493230033003 -0.37687179597960 -1.56054274247425
 1 -9.61960148234824  0.80862175937594 -0.36488717491749
 1 -10.12444060916092  0.55393977237724 -2.33303304500450
 1  3.64864129552955  3.41915448404841  3.78453663586359
 1  6.52134714031403  1.08376258275828 -1.93504100730073
 1  4.40931194139414  5.14380747274727 -2.30318737373737
 1  3.36176418051805  5.48132520242024 -0.91566464966497
 1  5.19802157365737  5.31129758435844 -0.81699344744475
 1  1.10080761926193 -8.15948719121912  1.15055472857286
 1  8.05688697049705  3.00569787608761 -3.24428319051905
 1  6.66796824112411  4.28974654595460 -2.75916880598060

