%nproc=4
%Mem=2GB
# td=(NStates=1) B3LYP/SVP 

TD

0 1
 8 -5.34600996279628  0.29212332733273 -3.37081991479148
 8  2.85541236733673  3.11898762216222  3.07749401380138
 8  3.13673441124112  0.91511652075207  3.52388434963496
 8  1.60861499739974 -7.14478038243824  1.68294870467047
 8  0.74406115551555 -7.14410531453145 -0.44982891409141
 8  1.89276273557356  3.83872683968397  0.13638190259026
 7 -2.34470507320732 -0.87361236783678  0.52770929802980
 7 -4.34379828372837  0.61429567816782 -1.32663459555956
 7  2.01246097319732 -0.65769775077508 -0.33827526562656
 7  2.61310258065807  1.73493194329433 -0.60903837883788
 6 -4.78686093239324  1.26893707310731 -0.01684122762276
 6 -4.39933453885389  0.28928534623462  1.12673473417342
 6 -2.95541899809981  0.06180106250625  1.28715405550555
 6 -2.03359840414041  0.67612975997600  2.02739353755376
 6 -0.74278816631663  0.00560200170017  1.81880064226423
 6 -0.99103347834783 -0.88648375747575  0.70155686398640
 6 -6.28362445984598  1.39656141204120 -0.15137355115512
 6  0.57585106840684  0.17316523962396  2.52343701250125
 6 -6.67512994469447  1.03172547774777 -1.35569642734273
 6 -0.16634237623762 -1.91979728082808  0.14463163886389
 6  1.13340625182518 -1.78169068166817 -0.22900169336934
 6 -5.41050910901090  0.57957765096510 -2.12884232503250
 6  1.94451032093209 -2.89958353435344 -0.81963728032803
 6 -2.18485522672267  1.73138487048705  3.20928956895690
 6 -7.15099709190919  1.97050258625863  0.86782739663966
 6  3.08516404470447 -2.36812883718372 -1.31560271737174
 6  0.98052482508251  1.75620876307631  2.50618583698370
 6  3.12594913591359 -1.05194463386339 -1.01616524752475
 6  1.52608814671467 -4.36050042964296 -0.86666514041404
 6 -7.98832555345535  1.00382494689469 -2.04504922692269
 6  1.74628631873187 -5.11891813421342  0.43358968546855
 6  4.22747046344634 -3.19512077787779 -1.81724372177218
 6  4.05913485568557 -0.11941027922792 -1.26186638173817
 6  2.43674629002900  1.83120729502950  3.08396830193019
 6  3.76823134903490  1.30980023632363 -1.07333310401040
 6 -9.22193036603660  1.09797764156416 -1.59046780938094
 6  1.31992930133013 -6.58083681318132  0.44854564726473
 6  4.61127519241924  2.44355641064106 -1.56618034453445
 6  3.95006064056406  3.59547370757076 -1.19772934423442
 6  2.68617737373737  3.13719542094209 -0.51912045904590
 6  5.91228923332333  2.32498436983698 -2.19451097989799
 6  4.31804259765977  4.98717023422342 -1.27243991589159
 6  6.77362491389139  3.38240466186619 -2.55247991609161
 1 -4.12451040174017  2.14900994589459  0.00884042604260
 1 -5.01472990209021 -0.55392038313831  0.77935918421842
 1 -4.69083920312031  0.74838906800680  2.05681781628163
 1 -3.08838624902490 -1.23655051255126 -0.18384077537754
 1 -3.42016771007101  0.51345442164216 -1.83136033333333
 1  0.39477606190619 -0.31906193269327  3.43423875607561
 1  1.33832227622762 -0.20486037003700  1.80195851625163
 1 -1.03919441194119 -2.72727069036904 -0.32668284988499
 1 -3.19074122612261  1.78140472577258  3.49232540014001
 1 -1.54233909330933  1.36530515801580  4.10187991259126
 1 -1.79029182848285  2.73705234103410  2.83069522352235
 1 -6.64983887898790  2.59328828092809  1.44477259605961
 1 -7.49655236353635  1.08383471187119  1.61653407600760
 1 -8.11720021132113  2.47798996909691  0.50529952715272
 1  1.21623380468047  2.32877548554855  1.64277428502850
 1  0.59360340044004  2.34692278007801  3.31052140664066
 1  1.91811743004300  0.29829621982198 -0.45399762586259
 1  1.95089334793479 -4.94946046924693 -1.70393845604560
 1  0.32220030043004 -4.41377129052905 -0.94942771247125
 1 -7.94426975197520  1.06866950095010 -3.06742765476548
 1  1.38940188028803 -4.58548285258526  1.32465215281528
 1  2.89184022692269 -5.10641712071207  0.60681461986199
 1  4.03934837863786 -4.17221474997500 -2.06531558415842
 1  5.20188230973097 -3.14073295409541 -1.15859078057806
 1  4.76961405770577 -2.94332638823882 -2.91161148344835
 1  5.03569637673767 -0.30650475927593 -1.61292798099810
 1 -9.48843836603660  0.90095099229923 -0.56030671687169
 1 -10.08001616671667  1.21841622002200 -2.22787252895290
 1  3.81680811221122  3.10533310191019  3.48087626982698
 1  6.23060806640664  1.28216242274227 -2.17227473067307
 1  4.36700771097110  5.31597468946895 -2.16013306830683
 1  3.78464646874687  5.61372844274427 -0.75845892909291
 1  5.43601537303730  5.17629408400840 -0.97704945304530
 1  1.16505404390439 -8.09245048754875  1.72581225432543
 1  7.76299758155816  3.11032833913391 -2.95431419361936
 1  6.37473891819182  4.37695526682668 -2.47151004010401

