%nproc=4
%Mem=2GB
# td=(NStates=1) B3LYP/SVP 

TD

0 1
 8 -5.43989935173517  0.16174028902890 -3.28002083488349
 8  3.05602242834283  3.09459518291829  3.19421568596860
 8  3.06700743854385  0.74901991109111  3.18928088928893
 8  1.64213834973497 -7.21452735713571  1.50900130993099
 8  0.22966971637164 -6.71699260326033 -0.26224015521552
 8  2.04724818411841  3.97433040004000 -0.02888462406241
 7 -2.37494809750975 -0.87849285588559  0.49759628672867
 7 -4.41815571947195  0.68220246884688 -1.21836376847685
 7  1.96102582968297 -0.72497447844784 -0.37123856195620
 7  2.71676294669467  1.91601005110511 -0.55670314531453
 6 -4.89220146644664  1.15008518791879 -0.00039958345835
 6 -4.50311491689169  0.27135355305531  1.22389445014501
 6 -3.03485694189419  0.04463934633463  1.21160650075008
 6 -2.09847489178918  0.68331047804780  2.10079087728773
 6 -0.77006089358936  0.11743318481848  1.72568133033303
 6 -1.03611798679868 -0.91179628872887  0.73792050035003
 6 -6.40400649804981  1.25282703860386 -0.18951736553655
 6  0.46120960426043  0.42560048314831  2.57894256305631
 6 -6.80649308100810  0.89421172637264 -1.39012987068707
 6 -0.17046278827883 -1.87897319841984  0.08172534823482
 6  1.14520743194319 -1.83474598719872 -0.31260005320532
 6 -5.44132219031903  0.54518421162116 -2.14262370317032
 6  1.81024689458946 -2.83036661266127 -0.92250756735674
 6 -2.35242198339834  1.57542927492749  3.18791743174317
 6 -7.20037202940294  1.73784932093209  0.92404301820182
 6  3.04237976627663 -2.43200522482248 -1.28766992409241
 6  1.01873864646465  1.83229637183718  2.43706892529253
 6  3.19176571757176 -1.00832027142714 -0.89983361436144
 6  1.47301283918392 -4.39716409600960 -0.85318379227923
 6 -8.00210693159316  0.84078864326433 -2.10887560956096
 6  1.76690838093809 -4.98821506390639  0.43779010551055
 6  4.27402511891189 -3.19698096389639 -1.83429542694269
 6  4.12539148134814 -0.04201253945395 -1.34676487158716
 6  2.53916653205321  1.85795997029703  2.99742964806481
 6  3.84167869376938  1.36479573587359 -1.14650042074207
 6 -9.19696786978698  0.78637648144814 -1.55071383398340
 6  1.12563987238724 -6.38906763626363  0.57670846354635
 6  4.72431649654966  2.47349940494049 -1.56809053555356
 6  4.21962759725973  3.75875003520352 -1.15076464776478
 6  2.88679743574357  3.26047774917492 -0.48581712871287
 6  6.08330633503350  2.23929580098010 -2.08751027982798
 6  4.69118991239124  5.19801131833183 -1.12184485638564
 6  7.03931148254826  3.15950237163716 -2.51392606070607
 1 -4.53198114881488  2.25453049794979  0.29130867286729
 1 -5.03380180928093 -0.54576956805681  1.14960620892089
 1 -4.74034415361536  0.68190241934193  2.29977211171117
 1 -2.67357476787679 -1.45976283378338 -0.32929532083208
 1 -3.51340703400340  0.34407748394840 -1.39152634993499
 1  0.39168575287529  0.01066103960396  3.72314764696470
 1  1.27558600260026 -0.18259814381438  2.23952227262726
 1 -0.62159265176518 -2.77866582988299 -0.15625580718072
 1 -3.41931408340834  1.43607019231923  3.49317548514852
 1 -1.65609046844684  1.37111573907391  4.00426015061506
 1 -2.05573837313731  2.61092972877288  2.94572672667267
 1 -6.77226112121212  2.46750570267027  1.58354647344735
 1 -7.46853956225623  0.92028835723572  1.65255767836784
 1 -8.40432892419242  1.89824199429943  0.55741473867387
 1  0.84952713401340  2.00226283428343  1.47238724632463
 1  0.55695973607361  2.59641772957296  2.99626998149815
 1  1.72970858915892  0.20982737293729 -0.10935316141614
 1  1.94166242484248 -4.94825034823482 -1.57717577977798
 1  0.46155423582358 -4.37617753115312 -1.08238100780078
 1 -7.82944826982698  0.74560719471947 -3.21652256425643
 1  1.32290523062306 -4.33570787508751  1.26428611621162
 1  2.84574561746175 -5.01611809080908  0.90924486288629
 1  3.86550099389939 -4.18286581508151 -2.33174222682268
 1  5.05738786028603 -3.33416229702970 -1.05896081758176
 1  4.67197429372937 -2.40293234883488 -2.73527384968497
 1  5.13765657275728 -0.18917302610261 -1.86123281148115
 1 -9.12427194939494  0.61986288348835 -0.53095378157816
 1 -10.09517768286829  0.75414979337934 -2.14183392509251
 1  3.87125355675568  2.82006457505751  3.54040222242224
 1  6.50330533613361  1.31164537103710 -2.07773527672767
 1  4.75879688988899  5.53515660766077 -2.15380243524352
 1  3.86179418351835  5.73347041694170 -0.56566965016502
 1  5.66816858835884  5.39101555615562 -0.74482623072307
 1  1.34011154965496 -8.10592183468347  1.26305597869787
 1  8.09804108590859  2.85343264956496 -2.80528929112911
 1  6.87747919221922  4.34513208450845 -2.52629551865186

