%nproc=4
%Mem=2GB
# td=(NStates=1) B3LYP/SVP 

TD

0 1
 8 -5.51629699149915  0.24348846384638 -3.41248408120812
 8  2.65695252135214  3.24985070847085  3.26552281668167
 8  2.98145888368837  1.05082009110911  3.53323528472847
 8  1.52420655655566 -7.16876278067807  1.54778518831883
 8  0.76751350075007 -7.06014691869187 -0.59899383058306
 8  2.16431989128913  4.06758972597260 -0.05737747334733
 7 -2.36920752345235 -0.89514452105211  0.57040356745675
 7 -4.57938184208421  0.69418366696670 -1.36060799289929
 7  1.97557728482848 -0.71070305130513 -0.34117555565557
 7  2.80117138753875  1.79442789288929 -0.50879835483548
 6 -4.95596784308431  1.21987216661666  0.01227168366837
 6 -4.48697330273027  0.28786520422042  1.16333839453945
 6 -3.06285974217422  0.14173905630563  1.28647398749875
 6 -2.01257630193019  0.77919006600660  2.02546334453445
 6 -0.81551543904390  0.12468390989099  1.67188595079508
 6 -1.01665604060406 -0.90152526162616  0.77536424472447
 6 -6.38911500890089  1.33498525442544 -0.05995440924092
 6  0.50097358065807  0.35410333343334  2.65832050085009
 6 -6.84274670637064  0.87721002620262 -1.29583044074407
 6 -0.21257699969997 -2.02186748784878  0.15487266296630
 6  1.14557746894689 -1.85067758035804 -0.30012880608061
 6 -5.58439649774977  0.49656935013501 -2.25302474327433
 6  1.93932980288029 -2.91507508350835 -0.81530684728473
 6 -2.20461720292029  1.83847557955796  3.06820546054605
 6 -7.25536752895290  1.91906744274427  1.03287390129013
 6  3.11757728602860 -2.48134015831583 -1.30185134223422
 6  0.98430520312031  1.91191433363336  2.57057227562756
 6  3.14777131813181 -1.00079951935194 -0.92850648164816
 6  1.51305684358436 -4.39009338893889 -0.96781525542554
 6 -8.14480120102010  0.79664422882288 -1.99656437843784
 6  1.65618730883088 -5.10099634203420  0.36101242774277
 6  4.29195691209121 -3.16466773257326 -2.02914491189119
 6  4.12966190839084 -0.09232757095710 -1.28950914601460
 6  2.24467708310831  1.99902407670767  3.23023292839284
 6  3.97625215111511  1.28707796409641 -1.02305807650765
 6 -9.27506567956796  0.73082092589259 -1.43255201780178
 6  1.31219852825283 -6.48898762826283  0.31762255495550
 6  4.92961702660266  2.47886994199420 -1.47439116561656
 6  4.26230186468647  3.58363252345235 -1.13756332763276
 6  2.97499625562556  3.21079278067807 -0.46017456445645
 6  6.18039604400440  2.19207107850785 -2.11645317411741
 6  4.83352414581458  5.00492200940094 -1.16033870577058
 6  6.90928848024802  3.06698311971197 -2.89122379047905
 1 -4.65789374007401  2.15794083898390  0.07049659165917
 1 -4.98193662276228 -0.75592058315832  1.01626287458746
 1 -5.02658277747775  0.61991622072207  2.14940707520752
 1 -2.75721313171317 -1.42190904840484 -0.22271466276628
 1 -3.58597429072907  0.51442451865187 -1.47434463176318
 1  0.44264084838484  0.21687166066607  3.65638097029703
 1  1.36303474747475 -0.32296218021802  2.48522684308431
 1 -0.60595108760876 -2.98127609090909  0.05924574297430
 1 -3.38099025102510  1.84713129842984  3.30686685428543
 1 -1.58801366076608  1.62770139763976  4.02820254485449
 1 -2.01698449774977  2.85559419521952  2.65588774277428
 1 -6.51183507860786  2.66376532863286  1.62291040984098
 1 -7.60456316461646  1.19952628102810  1.59515193779378
 1 -8.32657114841484  2.34197636773677  0.58464746194619
 1  0.92935511681168  2.18919152715271  1.47618762636264
 1  0.09104314441444  2.59823791159116  2.89217957245725
 1  1.59564518281828  0.39919630983098  0.03700147404740
 1  2.13401165976598 -4.78690421362136 -1.72251031323132
 1  0.39436751715172 -4.35391530493049 -1.24160693039304
 1 -8.17797312231223  0.73467610161016 -3.10383129512951
 1  1.10435337543754 -4.74147845214521  1.37051673927393
 1  2.71009205210521 -5.19825630463046  0.71293523192319
 1  4.06952139593959 -4.22222975147515 -2.31445049764976
 1  5.27974009550955 -3.57471635243524 -1.42882780428043
 1  4.50281737803780 -2.69146120172017 -2.95579590189019
 1  5.13041584868487 -0.24697880668067 -1.82685937413741
 1 -9.50245976817682  0.62160305750575 -0.35406609280928
 1 -10.16297446254626  0.57506188458846 -1.99341908360836
 1  3.53373980538054  3.25741831043104  3.79793797599760
 1  6.66609161476148  1.21576578307831 -1.72646014921492
 1  4.37222823302330  5.56499959195920 -2.20922797779778
 1  4.55674367846785  5.65275234513451 -0.14636771997200
 1  5.86171794329433  4.99754620922092 -0.86857860596060
 1  1.27061459996000 -8.15361660416042  1.51015068816882
 1  8.06750803260326  2.91257856415642 -3.19079784198420
 1  6.45244668896890  4.17735530683068 -3.21273416251625

