%nproc=4
%Mem=2GB
# td=(NStates=1) B3LYP/SVP 

TD

0 1
 8 -5.18042340414041  0.14285840084008 -3.28335116791679
 8  2.71630845694569  3.23366909030903  3.45930219461946
 8  3.10261099889989  1.06778178727873  3.23717567876788
 8  1.44783891979198 -7.26214211861186  1.43620403020302
 8  0.54231098049805 -7.11090199419942 -0.61473540474047
 8  2.07777123642364  4.03622658965897 -0.04568630423042
 7 -2.35555615831583 -1.02138714531453  0.68865539263926
 7 -4.37920182408241  0.66340058865887 -1.21828376047605
 7  1.86711643874387 -0.66300828182818 -0.33481491959196
 7  2.78317958835884  1.84044249434944 -0.36490396539654
 6 -4.87913015931593  1.27166734613461  0.03248370487049
 6 -4.45659026442644  0.26995341304130  1.28835089578958
 6 -3.02840629682968  0.01757664006401  1.41997733783378
 6 -2.03806885118512  0.58409055605561  2.17099789798980
 6 -0.79759364686469 -0.00447900640064  1.92753151535154
 6 -0.98238261326133 -1.01788689778978  0.93280998929893
 6 -6.40059615701570  1.37304906080608 -0.23805221902190
 6  0.52765624892489  0.38047597069707  2.58471314011401
 6 -6.56581901360136  1.06624893009301 -1.53743460116012
 6 -0.23635937793779 -1.96987228832883  0.11305848154815
 6  1.09163207440744 -1.83525603820382 -0.32867166036604
 6 -5.36534459255926  0.58612830603060 -2.15495493629363
 6  1.91991786168617 -2.82894647064706 -0.87391270787079
 6 -2.38226496769677  1.63562529452945  3.26041468146815
 6 -7.21861385358536  1.84978051405141  0.83699431333133
 6  3.13083861216122 -2.32639466376638 -1.17021817891789
 6  0.97409418201820  1.81403454565457  2.57568278667867
 6  3.01832837383738 -0.90561000040004 -0.89612324332433
 6  1.46719225712571 -4.31021540114011 -0.81226970087009
 6 -7.82485920682068  0.90459502390239 -2.17825254725473
 6  1.78733042314231 -5.12267851025103  0.39507583408341
 6  4.29093681008101 -3.13473473927393 -1.78359035643564
 6  4.13747268946895  0.01825348714871 -1.18432862796280
 6  2.40582319771977  1.93860803510351  3.05843574867487
 6  3.90486501240124  1.37713696999700 -1.06802257295730
 6 -9.04095226822682  0.90153799759976 -1.54716347894789
 6  1.16098340674067 -6.58737746724672  0.27885867856786
 6  4.75196926182618  2.52353440844084 -1.46280000650065
 6  4.14635026952695  3.64586874707471 -1.19696926822682
 6  2.88295705170517  3.22266396779678 -0.43861240824082
 6  6.09171717611761  2.24874674607461 -2.27043857265727
 6  4.49454024742474  5.06128764596460 -1.45454812671267
 6  6.71245879727973  3.03125954735474 -3.07927259535954
 1 -4.57425537623762  2.27960300520052  0.27784732673267
 1 -4.93240166926693 -0.52109710081008  1.20385163346335
 1 -4.73546366556656  0.82258648774877  2.22610474497450
 1 -2.63995140554055 -1.79941679917992 -0.09811220252025
 1 -3.56712240554055  0.67175025122512 -1.62769996729673
 1  0.26656324062406  0.26469644314431  3.80467579977998
 1  1.32548099209921 -0.35350523452345  2.20406872727273
 1 -0.72367285978598 -2.83137110041004 -0.02442262386239
 1 -3.49925207720772  1.73417000230023  3.30556672427243
 1 -1.59227408680868  1.39572820032003  4.11722144674467
 1 -2.06155895519552  2.62626126192619  3.15255740974097
 1 -6.76747064216422  2.49380833293329  1.54682280108011
 1 -7.82364507280728  1.08106443484348  1.38289071167117
 1 -7.99595808710871  2.59243141324132  0.48939793699370
 1  0.97649983128313  2.25244785278528  1.42671267886789
 1  0.17989202930293  2.61644973277328  3.02200255475548
 1  1.56350196849685  0.37171356155616 -0.21571379747975
 1  1.83358161676168 -4.81764728792879 -1.75806386858686
 1  0.41316939733973 -4.40506041944194 -0.91362413211321
 1 -7.97206253125313  0.57186982098210 -3.26558747074707
 1  1.48272121222122 -4.54216852115212  1.34801448904890
 1  2.68053909680968 -5.32222870187019  0.55904984338434
 1  3.94164860866087 -4.13607113561356 -1.94769382198220
 1  5.34765688718872 -3.31917079787979 -1.14975989748975
 1  4.40547764406441 -2.82851490709071 -2.69744006630663
 1  4.94888769586959 -0.50931504030403 -1.83001969016902
 1 -9.22286180838084  0.75310620782078 -0.60919160536054
 1 -9.87722588768877  0.56919129752975 -2.19604934663466
 1  3.53913034443444  3.17317988658866  3.88302648484849
 1  6.44301930753075  1.28090229672967 -2.05495299849985
 1  4.21294230443044  5.40176326832683 -2.53231028602860
 1  3.77153515761576  5.46077314721472 -0.60932401560156
 1  5.52461423292329  5.29351580618062 -1.25836758485849
 1  0.78300583908391 -8.08940018251825  1.33611328442844
 1  7.75195647744774  2.82696000230023 -3.35253401560156
 1  6.34925636993699  3.94885245654566 -3.51083397249725

