%nproc=4
%Mem=2GB
# td=(NStates=1) B3LYP/SVP 

TD

0 1
 8 -5.22238760056006  0.25143925892589 -3.29436226902690
 8  2.63080990709071  3.19567529092909  3.34909117351735
 8  3.14135487328733  0.92631764086409  3.17640960216022
 8  1.83681781768177 -7.40356626102610  1.30968137793779
 8 -0.02594584518452 -6.82033293729373 -0.16159009020902
 8  1.92090554985499  3.98939190619062 -0.11481321692169
 7 -2.35842644534453 -0.89762476907691  0.66924345144514
 7 -4.28962286618662  0.56954120272027 -1.19154108620862
 7  1.85197492459246 -0.64182616361636 -0.35675711381138
 7  2.69615088548855  1.84916336643664 -0.56341381638164
 6 -4.81049329562956  1.17913809320932  0.08845930243024
 6 -4.48576318171817  0.33369978767877  1.33846590729073
 6 -2.96176963316332  0.02949783218322  1.50854619471947
 6 -1.91842688698870  0.68347049404940  2.17633843204320
 6 -0.76073996149615  0.06128757025703  1.82021078327833
 6 -1.02001637663766 -0.94076918601860  0.75593230153015
 6 -6.31507760516052  1.36284804070407 -0.19034744854485
 6  0.50461394469447  0.25755367846785  2.59442411121112
 6 -6.54788722042204  0.95195750095009 -1.53939479717972
 6 -0.23934967696770 -1.95975127622762  0.12921009670967
 6  1.17300021122112 -1.81862437503750 -0.29542833603360
 6 -5.34928298639864  0.54080377357736 -2.18856829762976
 6  1.93888975887589 -2.90660423642364 -0.82580789738974
 6 -2.17149389058906  1.68230996299630  3.28702734273427
 6 -7.23193518571857  1.89542507850785  0.83447406130613
 6  3.13598912721272 -2.38443046734673 -1.19101025812581
 6  1.06289306190619  1.69055219741974  2.53499871827183
 6  3.09694623562356 -0.98024746414641 -0.92172580358036
 6  1.41362690059006 -4.27195157475748 -0.89682815671567
 6 -7.81559828072807  0.93124768916892 -2.24891961396140
 6  1.84719640974097 -5.15251149354935  0.33366969346935
 6  4.24092180858086 -3.15558682448245 -1.80652264966497
 6  4.09831877407741  0.01905356715672 -1.32462265736574
 6  2.39519213461346  1.83047722202220  3.08432833793379
 6  3.87429195509551  1.42945220152015 -1.13236900760076
 6 -9.07940611361136  0.85522336613661 -1.62711147374737
 6  1.06841414981498 -6.47306603610361  0.47777857055706
 6  4.70267433233323  2.50019207420742 -1.62607633413341
 6  4.08620425492549  3.59288344854485 -1.10154972627263
 6  2.71884064006401  3.16334803620362 -0.61046959395940
 6  6.08616662106211  2.33936580798080 -2.18338986778678
 6  4.39671046444644  5.02695421262126 -1.24144681658166
 6  6.86460401180118  3.20023644504450 -2.68913358145815
 1 -4.46377432813281  2.28126317121712  0.22374191619162
 1 -4.86922535163516 -0.60507549864987  1.10437168546855
 1 -5.02459257845785  0.75096932603260  2.38389052355236
 1 -2.69595700610061 -1.44983184068407 -0.21360375167517
 1 -3.15663135643564  0.86816989318932 -1.58030522782278
 1  0.47007359165917 -0.04592461896190  3.69801513371337
 1  1.35328377237724 -0.49848973297330  2.19727804820482
 1 -0.60296078857886 -2.94121208450845 -0.04188437003700
 1 -3.33124527652765  1.73914049934994  3.48533470107011
 1 -1.56048090749075  1.28243687118712  3.98732845744574
 1 -2.00399319861986  2.66571520732073  2.96384853885389
 1 -6.67012090719072  2.82936188828883  1.37427554635464
 1 -7.60625333363336  0.98939526792679  1.42596501910191
 1 -8.33168165946595  2.36921909200920  0.43223222042204
 1  1.15118730003000  2.22577518551855  1.43099310691069
 1  0.40820486058606  2.51933002080208  3.10046040054006
 1  1.48586420472047  0.26686307650765 -0.14821704780478
 1  1.75524378297830 -4.85714123732373 -1.78957701990199
 1  0.35442352275228 -4.41129104250425 -1.08872164186419
 1 -7.64169949494949  0.81756439043904 -3.29039995199520
 1  1.44251719181918 -4.62388669296930  1.37287697529753
 1  3.02115315821582 -5.52982946194619  0.56550048844884
 1  3.82879732353235 -4.10711824032403 -2.30431948454846
 1  5.12734485598560 -3.18344722552255 -0.90540546204620
 1  4.81860895719572 -2.55837789338934 -2.56348667096710
 1  4.94343715081508 -0.19677378617862 -1.89034572277228
 1 -9.30121964416442  0.73859475667567 -0.52141282748275
 1 -10.06648481358136  0.50149452785279 -2.38288803050305
 1  3.64837126852685  3.06364893349335  3.53422160436044
 1  6.54008901450145  1.31975618211821 -2.06452395559556
 1  4.17815882608261  5.53334642664266 -2.20451750675067
 1  3.66955495959596  5.56639370927093 -0.60960404360436
 1  5.40536230773077  5.25191164576458 -1.04139588768877
 1  1.55838337683768 -8.37079832233223  1.23104277737774
 1  7.77097837963796  2.71283859015902 -3.06855561776178
 1  6.72612405670567  4.28504607590759 -2.90022291139114

