%nproc=4
%Mem=2GB
# td=(NStates=1) B3LYP/SVP 

TD

0 1
 8 -5.35141050285028  0.20384449944994 -3.30987382018202
 8  2.71396822292229  3.27672339573957  3.31405767016702
 8  3.20981171897190  1.07531254035404  3.34323628482848
 8  1.53390752665267 -7.23920982538254  1.49881029082908
 8  0.33068981838184 -6.92121302530253 -0.27768169936994
 8  2.04991845114511  3.88866183318332  0.10513877827783
 7 -2.31446204890489 -0.92137714431443  0.62433896099610
 7 -4.36968087198720  0.64847909650965 -1.31138307040704
 7  1.88511823892389 -0.70369235023502 -0.45413685178518
 7  2.75211648204820  1.82816126622662 -0.52140961596160
 6 -4.81623386968697  1.19986016541654  0.00496095259526
 6 -4.40718532393239  0.34123054075408  1.23285534623462
 6 -2.93494695089509  0.00839572197220  1.31865720582058
 6 -2.02100714501450  0.67062920992099  2.15452625082508
 6 -0.68480236773677  0.08925036653665  1.73289205140514
 6 -0.99203357835784 -0.91432654175418  0.75520222852285
 6 -6.31425752315232  1.33345510141014 -0.22821123492349
 6  0.63707719101910  0.28058598169817  2.44800946974697
 6 -6.69864229592959  0.95790809600960 -1.46127698539854
 6 -0.18827456945695 -1.85446074717472  0.13250042574257
 6  1.07730064126413 -1.82924543714371 -0.28804759795980
 6 -5.40363842194219  0.53149284248425 -2.14377381818182
 6  1.89074494439444 -2.88408198419842 -0.87421273787379
 6 -2.28579532073207  1.62770450245025  3.15981462146215
 6 -7.19699169136914  1.83903943994399  0.93100371427143
 6  3.03483901220122 -2.45161718601860 -1.32221337843784
 6  1.05515228782878  1.74207734993499  2.46312153055306
 6  3.09028556955696 -0.91000043944394 -1.03217684868487
 6  1.30313585148515 -4.27929230883088 -0.82742121602160
 6 -7.95887260816082  0.74458902330233 -2.16431115311531
 6  1.67636932703270 -5.04981122352235  0.53393972047205
 6  4.27088480488049 -3.07781904770477 -2.11414341174117
 6  4.07072601480148  0.04747640944094 -1.46196639173917
 6  2.41509412481248  1.95688986328633  3.09073897899790
 6  3.82813733963396  1.39884914121412 -1.12922869356936
 6 -9.12565073807381  0.58647649144914 -1.51550031263126
 6  1.08217552595260 -6.51971070057006  0.44890568326833
 6  4.80610467536754  2.42702475747575 -1.46129985648565
 6  4.22881851635164  3.64479864006401 -0.99479905120512
 6  2.85606436243624  3.16660836223622 -0.48216676367637
 6  6.01833983838384  2.22161403280328 -2.23046457525753
 6  4.56247704110411  5.07056857405741 -1.11452412431243
 6  7.00318787018702  3.13670009140914 -2.62685735383538
 1 -4.56924487518752  2.38503354825483  0.23313285528553
 1 -5.00701913101310 -0.69606459755976  1.13505475377538
 1 -4.89125924512451  0.90917514661466  2.10406254075408
 1 -2.86553396379638 -1.49067592509251 -0.05787817911791
 1 -3.52539823312331  0.69314239043905 -1.72244944224422
 1  0.71404798909891 -0.21155118161816  3.60397572977298
 1  1.36105454945495 -0.27007689168917  1.91911023142314
 1 -0.73145363786379 -2.85707367066707  0.02040185858586
 1 -3.41574372637264  1.74387097239724  3.57069323692369
 1 -1.62762762216222  1.57542617011701  4.23949367396740
 1 -1.94754755405541  2.72036067186719  2.91579373337334
 1 -6.59754364946495  2.56650560266027  1.53751186998700
 1 -7.67762047034703  1.16370269866987  1.46742916551655
 1 -8.06927541884188  2.26479864996500  0.48935793299330
 1  1.09878205950595  2.10565317331733  1.47477748534854
 1  0.22521656175618  2.25560364816482  2.96532688718872
 1  1.74258987728773  0.19822621282128 -0.17844007010701
 1  1.69151741034103 -4.82462798599860 -1.75922398459846
 1  0.06760484088409 -4.08050796419642 -0.97320008970897
 1 -7.75423074807481  0.79048168216822 -3.20320123212321
 1  0.95945888598860 -4.65753005730573  1.36397608520852
 1  2.75909695259526 -5.03137961696170  0.60972491089109
 1  3.90672511631163 -3.97068459695970 -2.52105115771577
 1  5.10181230273027 -3.25465434623462 -1.25969089058906
 1  4.44230132643264 -2.63126518211821 -3.01672199449945
 1  4.78715152225222 -0.42856696549655 -1.75923261146115
 1 -9.12816233843384  0.42590348754875 -0.49002968916892
 1 -9.93350151525153  0.37643202160216 -2.18104784648465
 1  3.50245667706771  3.49672224082408  3.65619380158016
 1  6.24641964756476  1.03920812731273 -2.55268277147715
 1  4.74267527772777  5.54526761876188 -2.20782783778378
 1  3.83187119121912  5.81354842474247 -0.72865594879488
 1  5.56375814731473  5.31396785138514 -0.61026277437744
 1  0.88547608610861 -8.02352359485949  1.50476014911491
 1  7.90011129292929  2.88998630493049 -2.97769653185319
 1  7.04516596089609  4.38455602690269 -2.19680256935694

