%nproc=4
%Mem=2GB
# td=(NStates=1) B3LYP/SVP 

TD

0 1
 8 -5.34003936573657  0.37361147614761 -3.36335916871687
 8  2.66474330043004  3.26339206260626  3.30763702810281
 8  3.02022276007601  0.96376138523852  3.64628658985899
 8  1.94903903980398 -7.35275117951795  1.38257866766677
 8  0.04255100450045 -6.83370427442744 -0.16989092029203
 8  1.97342080138014  4.06821978897890 -0.20225196079608
 7 -2.37238784148415 -0.96502150875088  0.56428295539554
 7 -4.34222812671267  0.59509375797580 -1.20418235033503
 7  1.90355008210821 -0.77409939093909 -0.35327676577658
 7  2.74160543094309  1.78964741484148 -0.52017949294930
 6 -4.85706795309531  1.16628680808081  0.06939739623962
 6 -4.45785039043904  0.18520493819382  1.23548560926093
 6 -2.98485194139414 -0.03983910151015  1.31105644574457
 6 -2.08418346264626  0.55270741774177  2.18527932613261
 6 -0.79403329082908 -0.02345090359036  1.86260502270227
 6 -1.00880525552555 -0.85095020412041  0.80039674797480
 6 -6.28194429182918  1.34791654755476 -0.23076148994899
 6  0.51108459175918  0.27770569366937  2.54918958775878
 6 -6.68571100280028  0.93165547074707 -1.38655951365137
 6 -0.21719746174617 -1.82444774587459  0.13353052875288
 6  1.17608051925193 -1.83531604420442 -0.21662045524552
 6 -5.44980303840384  0.58302799599960 -2.20596003680368
 6  1.95308117801780 -2.92019559555956 -0.76305162176218
 6 -2.30652739393939  1.54462619461946  3.28822746274627
 6 -7.12515450765077  1.92626816281628  0.90241085498550
 6  3.21755728402840 -2.43113513781378 -1.17095825292529
 6  0.96822359495950  1.66964010621062  2.54789000740074
 6  3.12240878187819 -0.99181862126213 -0.88923255425543
 6  1.51256679457946 -4.36354073367337 -0.91953042694269
 6 -7.89687640854085  0.98552311671167 -2.18722344434443
 6  1.86446813691369 -5.24198044044404  0.39931625812581
 6  4.29962767916792 -3.12762402820282 -1.86794879227923
 6  4.09627857005701 -0.07671600980098 -1.44021421652165
 6  2.36363897929793  1.91096527082708  3.15617552265227
 6  3.84943946984698  1.33845310161016 -1.15986175687569
 6 -9.20587876087609  1.12327017081708 -1.64557331993199
 6  1.24033134153415 -6.60198892839284  0.42567336003600
 6  4.79423348824883  2.44975703070307 -1.56122984948495
 6  4.10291592609261  3.60298445864586 -1.25965553685369
 6  2.77000575657566  3.19284098549855 -0.50541908890889
 6  6.09996800120012  2.29618148954895 -2.29476100490049
 6  4.43221401480148  5.14286580378038 -1.38040071197120
 6  6.91396894829483  3.32851927332733 -2.74598926702670
 1 -4.23732168286829  2.11918696359636  0.37247678967897
 1 -5.16736516561656 -0.78114310541054  1.08044929322932
 1 -4.56494661386139  0.60882511161116  2.26357849234924
 1 -2.70226763716372 -1.46783364086409 -0.12434482578258
 1 -3.42141783508351  0.62785586178618 -1.64935213251325
 1  0.24056064036404 -0.10352037853785  3.61167649984998
 1  1.41973041704170 -0.53970385438544  2.29432775317532
 1 -0.58217871037104 -2.90587855115512  0.00358017641764
 1 -3.39981213321332  1.28244482978298  3.85584175177518
 1 -1.31177603700370  1.40237886538654  3.99833955855586
 1 -2.40506330563056  2.56635527132713  2.71224337833783
 1 -6.69856375147515  2.57180613271327  1.51446956575658
 1 -7.93307601590159  1.12095842424242  1.56328875147515
 1 -7.96758524982498  2.68966113621362  0.48078707590759
 1  0.78417059835984  2.00372298029803  1.68013802140214
 1  0.51526556665667  2.46708479627963  3.17182753725373
 1  1.78181379967997  0.22817920812081 -0.28813103920392
 1  1.86444470307031 -4.92587811101110 -1.86583464566457
 1  0.40100818121812 -4.52467238063806 -1.18998176787679
 1 -7.95638096309631  0.92105473947395 -3.19021993399340
 1  1.39642258235824 -4.57985228952895  1.33548323592359
 1  3.16787783068307 -5.30622710171017  0.45990992939294
 1  3.95509995379538 -4.09274680318032 -2.43453250585059
 1  4.87020914241424 -3.56891577237724 -0.98581350285029
 1  4.53554065036504 -2.34029608520852 -2.62320264256426
 1  5.11107391449145 -0.30584469326933 -1.85929261746175
 1 -9.38224774697470  1.19028992619262 -0.53659434563456
 1 -9.87419558465847  1.46658103650365 -2.48983872557256
 1  3.57660409180918  3.45175774437444  3.65375355755576
 1  6.32478748434843  1.30033423992399 -2.60429793299330
 1  4.59091010121012  5.48348144014401 -2.37389444444445
 1  3.84683268736874  5.97116418631863 -0.83178626182618
 1  5.53274504600460  5.32445890049005 -1.28330007810781
 1  1.44240177867787 -8.11149239173917  1.43599327242724
 1  7.80659194099410  3.03127043334333 -3.39339810201020
 1  6.58931037533753  4.40393796509651 -2.60893378247825

