%nproc=4
%Mem=2GB
# td=(NStates=1) B3LYP/SVP 

TD

0 1
 8 -5.25960132193219  0.43281739673967 -3.38771160396040
 8  2.87073389948995  3.13951967536754  3.19000526492649
 8  3.21921265906591  0.95006001510151  3.12229419061906
 8  1.42698683458346 -7.22872877727773  1.59846025582558
 8  0.55774252365236 -7.01647255125513 -0.41704563576358
 8  1.95859931923192  4.03148611561156 -0.02636437203720
 7 -2.35685628832883 -0.87368237483748  0.56761328842884
 7 -4.31659556345635  0.82195644424442 -1.26619855195520
 7  1.86379610671067 -0.75458743974397 -0.36226766486649
 7  2.64412568296830  1.82613106320632 -0.41391886688669
 6 -4.81911415771577  1.23446362576258 -0.00572011551155
 6 -4.43043764916492  0.27513393109311  1.13330539123912
 6 -2.92735619181918 -0.01973709130913  1.37983332343234
 6 -2.01260630493049  0.68527067406741  2.13821461966197
 6 -0.72950683818382 -0.01709026752675  1.81980074227423
 6 -1.04433880888089 -0.89720482958296  0.78651535983598
 6 -6.39619571697170  1.42409416531653 -0.16223463726373
 6  0.55329881318132  0.31984990809081  2.62345701450145
 6 -6.69294172587259  0.94239654485449 -1.45563642134213
 6 -0.17571331333133 -1.89022432353235  0.18997617331733
 6  1.13812672387239 -1.95453796639664 -0.30164895809581
 6 -5.34541259935994  0.61593128632863 -2.14384382518252
 6  1.84994086398640 -2.92331590759076 -0.91771708830883
 6 -2.25757249844985  1.69847157915792  3.17436607660766
 6 -7.26885887808781  1.74823035903590  1.00888150205020
 6  3.09352488078808 -2.42354437873787 -1.33493465056506
 6  1.05804257685769  1.70685382758276  2.46363158155816
 6  3.04480102110211 -0.91238067746775 -1.13596722772277
 6  1.50887642554255 -4.36701108070807 -0.82641111501150
 6 -7.94876159705971  0.72126669106911 -2.10885560756076
 6  1.64165585568557 -5.04384062646265  0.46709303580358
 6  4.32594031043104 -3.13250451625163 -1.81511350875087
 6  3.95144408660866  0.01374303610361 -1.42060225532553
 6  2.46392900830083  1.86835100940094  2.99814972007201
 6  3.73166769266927  1.39544880118012 -1.10021579227923
 6 -9.15843401640164  0.62908075187519 -1.55693445604560
 6  1.15098240664066 -6.49018774827483  0.47996878957896
 6  4.73578764366437  2.54033608860886 -1.39917364386439
 6  4.07870350485048  3.70418457865787 -1.05650522182218
 6  2.82130088608861  3.28028973037304 -0.45223377037704
 6  6.03636164056406  2.21341321272127 -2.20553208200820
 6  4.53188398179818  5.09319083628363 -1.24461713361336
 6  7.00514806620662  3.09700612201220 -2.54776944504450
 1 -4.49662761346135  2.25321036593659  0.10013955595560
 1 -4.99589801890189 -0.67124211531153  1.07955920422042
 1 -4.70260037923792  0.88089231833183  2.15669780428043
 1 -2.83441085148515 -1.30914777227723 -0.14408679998000
 1 -3.36899259255926  0.98454153035304 -1.67583478077808
 1  0.49392597689769  0.00920089358936  3.81963729592959
 1  1.11897034103410 -0.39878976297630  2.12992131253125
 1 -0.69817030953095 -2.89001696499650  0.05736555495550
 1 -3.35045719771977  1.84177076237624  3.28074424202420
 1 -1.78727358675868  1.46985561306131  4.16945667026703
 1 -1.96912971227123  2.54581321712171  2.72105425942594
 1 -6.66092998809881  2.28358731083108  1.65563368216822
 1 -7.67604031233123  0.84308063646365  1.55727815041504
 1 -8.03549204050405  2.41396356645665  0.58296729392939
 1  1.19782196349635  2.16697930593059  1.43503351095110
 1  0.49300334043404  2.73226131393139  2.78894924942494
 1  1.52219783808381  0.10060645084508 -0.10902312841284
 1  2.16796505510551 -5.13098862206221 -1.54682274447445
 1  0.56405448584858 -4.58352826622662 -1.18783155285529
 1 -8.14910023502350  0.80406304030403 -3.30791170317032
 1  1.19914285438544 -4.52556686098610  1.34889457705771
 1  2.77238828172817 -5.19257573657366  0.74023796219622
 1  4.17567201100110 -4.30038756725673 -1.89586863946395
 1  5.08462058355836 -3.00328920972097 -1.07980290179018
 1  4.63622071837184 -2.68248030363036 -2.72060238253825
 1  4.72767557465747 -0.29702381118112 -1.93604029222922
 1 -9.04518404060406  0.55265616281628 -0.54149483568357
 1 -9.82203036813681  0.62483686208621 -2.24705444714471
 1  3.66659309070907  3.19913248184818  3.56709489168917
 1  6.41048605420542  1.09853405990599 -2.17558506170617
 1  4.56627763796380  5.59031212321232 -2.29590664566457
 1  3.75136314041404  5.84941201110111 -0.75195827902790
 1  5.55260703220322  5.01707816241624 -0.83210495859586
 1  0.92734027252725 -8.11998324082408  1.60771044414441
 1  7.90266154795480  2.68503580988099 -3.12795155735574
 1  6.83107455175518  4.21929950125013 -2.59048193729373

