%nproc=4
%Mem=2GB
# td=(NStates=1) B3LYP/SVP 

TD

0 1
 8 -5.12182754455446  0.45163927892789 -3.41065389818982
 8  2.89082590869087  2.75644136753675  3.47288355275528
 8  3.25926666446645  0.51250625972597  3.28096005720572
 8  1.95459959585959 -7.06573247764776  1.71400180998100
 8  0.51466821622162 -7.05457636163616 -0.03321725292529
 8  1.78024148344834  4.02853582058206 -0.15935767136714
 7 -2.39537013971397 -0.92708771537154  0.55397192429243
 7 -4.34653855775578  0.82219646824682 -1.22991492359236
 7  1.96241596869687 -0.75748772977298 -0.22944438253825
 7  2.61008227862786  1.85230368046805 -0.55993346834683
 6 -4.83751599789979  1.29170935033503  0.08722917941794
 6 -4.48068267366737  0.20797721542154  1.14302636333633
 6 -3.02666612281228 -0.03090820842084  1.28119345944594
 6 -2.08603364766477  0.54206635363536  2.08704950315032
 6 -0.79726361386139  0.00254169566957  1.76128489068907
 6 -0.92665704070407 -0.81940704980498  0.74836154445445
 6 -6.31849794719472  1.44186594249425 -0.18735714951495
 6  0.47198068136814  0.27775569866987  2.58263293209321
 6 -6.61228366006601  1.16018832403240 -1.42537339503950
 6 -0.11905764776478 -1.84321962306231  0.06299347504750
 6  1.13646655785579 -1.93650616321632 -0.24648344154415
 6 -5.31414947304730  0.76163585678568 -2.17154659545955
 6  2.02203807370737 -2.91971554755476 -0.81421673827383
 6 -2.31655839703970  1.47071880388039  3.19671831183118
 6 -7.17707970017002  1.90625616161616  0.88041865576558
 6  3.17663319161916 -2.44299632393239 -1.27030818791879
 6  1.11366813941394  1.64678782098210  2.54071929032903
 6  3.09222576357636 -0.98222766216622 -0.90028365936594
 6  1.51968750665067 -4.37866224582458 -0.86991546544654
 6 -7.82335905680568  1.21294585898590 -2.27382210421042
 6  1.84273596369637 -5.10703694609461  0.49739606610661
 6  4.26245396179618 -3.16006727252725 -1.94567656505651
 6  3.93338228042804  0.04319598139814 -1.26452664776478
 6  2.49154176957696  1.53218739303930  3.13854375947595
 6  3.72690721662166  1.39953921022102 -1.12921869256926
 6 -9.15198337133713  1.10637848164816 -1.73216197879788
 6  1.35543285168517 -6.51418014751475  0.60250104280428
 6  4.56178024292429  2.57748980398040 -1.58167189368937
 6  3.88036367086709  3.72624678487849 -1.24781435273527
 6  2.64084284028403  3.26670837223722 -0.55545409240924
 6  5.85381338573857  2.33194506590659 -2.14044557335734
 6  4.20354114751475  5.04386590379038 -1.48379105100510
 6  6.62447999939994  3.17450387178718 -2.82685735383538
 1 -4.36823477417742  2.23735878077808  0.59768931093109
 1 -4.86925535463546 -0.71100609170917  0.78014926322632
 1 -4.92860297949795  0.53232746184618  2.23852598709871
 1 -2.55727313771377 -1.55305216271627 -0.34427681898190
 1 -3.30659635293529  0.64438751495150 -1.43011020832083
 1 -0.01128454415442 -0.08865889238924  3.51502683488349
 1  1.26512495649565 -0.39153903790379  2.42210053045305
 1 -0.83782427492749 -2.76448441174117 -0.29963014461446
 1 -3.31407355935594  1.65453203850385  3.75145131273127
 1 -1.73956881628163  1.30683931143114  4.11730145474547
 1 -1.94605740504050  2.62162079787979  2.89211136513651
 1 -6.73449734483448  2.58880783288329  1.43015113391339
 1 -7.30253296159616  1.06007233563356  1.53591601420142
 1 -8.16717520882088  2.28897106720672  0.51172016921692
 1  1.19021120242024  2.06986959495950  1.64819482708271
 1  0.66022006210621  2.24811289908991  3.21339169366937
 1  1.67338295659566  0.05930232043204 -0.01056328242824
 1  2.06514477307731 -4.98165368856886 -1.71396945914591
 1  0.48720680108011 -4.54151406480648 -1.04406717641764
 1 -7.91215654065407  1.49748238223822 -3.27284819681968
 1  1.53049598969897 -4.40352465676568  1.36185587318732
 1  2.89862090499050 -4.94074055305531  0.81228516691669
 1  4.11439588338834 -4.22921044954495 -1.99752880548055
 1  5.33034515601560 -3.13622250305031 -1.27983290479048
 1  4.32527962426243 -2.80392244784478 -3.07052737503750
 1  5.08000080718072 -0.00561467026703 -1.69664635283528
 1 -9.07002652485249  0.69270016721672 -0.65058574477448
 1 -9.98201636673667  1.06706108450845 -2.47643738543854
 1  3.92055848724873  2.90598316691669  3.69488767096710
 1  6.42294730033003  1.39406361286129 -2.37056455965597
 1  4.04619562976298  5.31776486848685 -2.61161821682168
 1  3.33010101420142  5.75465253515352 -1.17818090129013
 1  5.24271604310431  5.54302075667567 -0.86485823392339
 1  1.26092363086309 -7.83283452595259  1.79742941604160
 1  7.52555383718372  2.78095540184018 -3.10982974517452
 1  6.39822126642664  4.31283885518552 -2.96099898899890

