%nproc=4
%Mem=2GB
# td=(NStates=1) B3LYP/SVP 

TD

0 1
 8 -5.51490685248525  0.19237335233523 -3.33039587238724
 8  2.75495232133213  3.16941266466647  3.17060332473247
 8  3.10133087088709  0.98094310341034  3.40778273947395
 8  1.38307244314431 -7.03726963136314  1.64183459325933
 8  0.37446419581958 -6.88620952495250 -0.39741367256726
 8  2.01464492379238  3.96085905290529 -0.04805654125413
 7 -2.37106770947095 -0.96809181578158  0.50039656675668
 7 -4.39611351525153  0.64276852545255 -1.34802673477348
 7  1.86036576367637 -0.68300028102810 -0.35824726282628
 7  2.76893816421642  1.88789723982398 -0.44187166216622
 6 -4.76467871417142  1.20415059445945  0.01301175767577
 6 -4.45390999639964  0.27567398509851  1.21702376307631
 6 -3.01691514771477 -0.11958707630763  1.24518985908591
 6 -2.05680072437244  0.62562470947095  2.06225702390239
 6 -0.75629951745175  0.03243468496850  1.72460122232223
 6 -0.99429380438044 -0.88285339443944  0.77716442474247
 6 -6.30853695109511  1.44309606550655 -0.18587700150015
 6  0.59283276657666  0.32593051615162  2.48213288208821
 6 -6.71126355805580  0.94085639083908 -1.33603446114611
 6 -0.21293703570357 -1.87358265936594  0.02764994069407
 6  1.08186109730973 -1.81109362196220 -0.39999879307931
 6 -5.49200725882588  0.63985367856786 -2.16156559735974
 6  1.95636150605061 -2.90750432643264 -0.98970428702870
 6 -2.30438717991799  1.60782251425143  3.16617525752575
 6 -7.19950194239424  1.92272780878088  0.94344495839584
 6  3.13573910221022 -2.42043406770677 -1.34331548864886
 6  1.08139491209121  1.75836897909791  2.59529474787479
 6  3.11736827782778 -0.96748618801880 -1.02338596959696
 6  1.56552209010901 -4.32160654025403 -0.90271874577458
 6 -7.98437515841584  0.78283284768477 -2.04848957095710
 6  1.86169785988599 -5.10655689808981  0.35633195969597
 6  4.31282899929993 -3.09795106090609 -1.97329932733273
 6  4.06835577777778 -0.01339967816782 -1.18992918801880
 6  2.48532114751475  1.88876305060506  3.03120302540254
 6  3.90199472537254  1.39578883518352 -0.87306307700770
 6 -9.23976214921492  0.67933577737774 -1.40880964356436
 6  1.13330063846385 -6.43086181568157  0.48840963366337
 6  4.87546161106111  2.41549360436044 -1.36665039153915
 6  4.24148978347835  3.62533669386939 -1.11745131643164
 6  2.85808456445645  3.26833853525353 -0.49622816981698
 6  6.16759476387639  2.21588345974597 -2.04892642144214
 6  4.45086587998800  5.05826734393439 -1.39702237413741
 6  6.97199475087509  3.07065348674868 -2.60804547264727
 1 -4.30949890059006  2.13198824372437  0.13101264326433
 1 -5.36314474357436 -0.56599159025903  0.80291153945395
 1 -4.95983610281028  0.67917214631463  2.13064519901990
 1 -2.81483889428943 -1.45122197969797 -0.31971436273627
 1 -3.54904059735974  0.65782885908591 -1.91994919221922
 1  0.57984456875688 -0.32767279377938  3.43991932413241
 1  1.22480092409241 -0.46408629262926  1.99679800020002
 1 -0.76294678717872 -2.86487445074507 -0.26794697629763
 1 -3.18488064006401  1.76002258755876  3.46804297189719
 1 -1.86507136653665  1.28928755625562  4.00569029362936
 1 -1.91971477077708  2.87423605940594  3.23802595659566
 1 -6.40020391549155  2.56517546964696  1.52924104290429
 1 -7.74708741704170  1.03441977037704  1.43967639023902
 1 -8.09038753005301  2.33936610671067  0.51542053925393
 1  0.98970115141514  2.23941654965497  1.64097410501050
 1  0.51921596169617  2.38610669846985  3.39539989448945
 1  1.59531514981498  0.41023741394139 -0.21679390549055
 1  1.95677393599360 -4.85132065526553 -1.73320138233823
 1  0.49951803220322 -4.80071998539854 -1.01998476817682
 1 -7.82380770577058  0.48828146214621 -2.97705861786179
 1  1.61583452355236 -4.36164046834683  1.29814950255025
 1  2.82216325922592 -5.28262474147415  0.63029696809681
 1  4.14246869066907 -4.05751327982798 -2.42806185878588
 1  5.24354647614761 -3.13649253005301 -1.35343026452645
 1  4.82407950425043 -2.55093714931493 -2.82379270157016
 1  4.93258606570657 -0.28589269806981 -1.66177286548655
 1 -9.30165968816882  0.93919481668167 -0.40669135533553
 1 -10.17128529362936  0.55545992439244 -1.92615235693569
 1  3.62256868826883  3.14600716931693  3.59079726192619
 1  6.32735774137414  1.13177738423842 -1.94680218341834
 1  4.51789279947995  5.33806689868987 -2.54824187918792
 1  3.66526453055306  5.58703577347735 -0.97117020022002
 1  5.30641241274127  5.42657911251125 -1.00974272237224
 1  1.22234977347735 -7.99125036753675  1.68613828692869
 1  7.90192147394739  3.04065137143714 -2.94680344254425
 1  6.66349779407941  4.16377394869487 -2.72521541064106

