%nproc=4
%Mem=2GB
# td=(NStates=1) B3LYP/SVP 

TD

0 1
 8 -5.40914627642764 -0.02273815881588 -3.33325615841584
 8  2.90230705680568  3.16193191659166  3.30860712511251
 8  3.22731346914691  0.96415142424242  3.51966392759276
 8  1.21647578347835 -7.13365927032703  1.54582499229923
 8  0.39108585798580 -6.92225312931293 -0.50332426362636
 8  2.07195065436544  4.01993496049605 -0.01660339593959
 7 -2.32941354405441 -0.75837084368437  0.50036656375638
 7 -4.41654555845585  0.57821206980698 -1.28000993309331
 7  1.92222194929493 -0.65415739673967 -0.41708314641464
 7  2.80358162856286  1.80543899399940 -0.44458193319332
 6 -4.91231347764777  1.13928410781078 -0.06529607310731
 6 -4.46168077347735  0.37754417211721  1.20053211391139
 6 -2.97823127932793  0.10798568096810  1.29367470757076
 6 -2.00057510181018  0.66721886888689  2.12285308350835
 6 -0.73486737423742  0.20529197069707  1.80386914911491
 6 -0.98736311131113 -0.75701081018102  0.83171988028803
 6 -6.35534163156316  1.15887764366437 -0.20907932173217
 6  0.64999848314831  0.27920584368437  2.57097176597660
 6 -6.70620305200520  0.68706101130113 -1.36074693239324
 6 -0.21632737473747 -1.72240754185419  0.13296047174717
 6  1.04929784098410 -1.75185769836984 -0.39836863006301
 6 -5.43901195929593  0.32298199139914 -2.14093353415342
 6  1.89329519941994 -2.89090266626663 -0.83660897749775
 6 -2.26396313751375  1.75244697669767  3.18870751075108
 6 -7.18874086628663  1.85671120712071  0.93594420832083
 6  3.15705123342334 -2.41776380068007 -1.26308746584658
 6  1.12908968156816  1.75712885508551  2.53476869526953
 6  3.12454899589959 -0.90927036643664 -0.97282091309131
 6  1.38725426332633 -4.34906928652865 -1.01903037693769
 6 -8.02619934083408  0.67603216761676 -2.10412513451345
 6  1.61571326142614 -5.01312755515552  0.32236856335634
 6  4.30719843624362 -3.12689395519552 -1.88261025842584
 6  4.14378332053205  0.02296395819582 -1.32343253835384
 6  2.43188580398040  1.84682885718572  3.12663256835684
 6  3.94228875477548  1.41359061536154 -1.06715248594860
 6 -9.20033820682068  0.66239408320832 -1.49320808340834
 6  0.96523383178318 -6.45418414791479  0.35123591629163
 6  4.85560962586259  2.52175423042304 -1.51747547404740
 6  4.17438307280728  3.65133929412941 -1.08276784808481
 6  2.87375613161316  3.24024572597260 -0.45660420742074
 6  6.20197820222022  2.21778364976498 -2.03579510831083
 6  4.56443723712371  5.12383390059006 -1.22696536843684
 6  6.88710626202620  3.07159358075808 -2.82480714881488
 1 -4.57558550925093  2.17317236213621  0.20207974997500
 1 -4.97121555065507 -0.71000599169917  1.25077632593259
 1 -4.91021114031403  0.96712094119412  2.02895503000300
 1 -2.90781819221922 -1.33751060856086 -0.28313070437044
 1 -3.48710440374037  0.85443852005200 -1.75082227952795
 1  0.35460204450445 -0.27967799429943  3.65720105230523
 1  1.39936838083808 -0.36808669266927  2.04662298269827
 1 -0.86345683818382 -2.64201216451645 -0.20479066066607
 1 -3.36678883088309  1.69641622692269  3.45213138073807
 1 -1.72798765816582  1.49594822232223  4.05303502810281
 1 -2.09147194649465  2.76119475527553  2.90205235923592
 1 -6.40579447454745  2.56277522962296  1.53769188798880
 1 -7.85897860616062  1.28746507490749  1.69478190079008
 1 -7.75727421872187  2.46680885098510  0.47134613181318
 1  1.19303148444845  2.13244585258526  1.60411041864186
 1  0.55846988708871  2.69298738653865  3.11168152265227
 1  1.59492511081108  0.40197658785879 -0.02671489758976
 1  1.85977423602360 -4.86870239343934 -1.72321038323832
 1  0.46454453485349 -4.37385729912991 -1.20598336803680
 1 -7.95313063806381  0.40382301630163 -3.17307821982198
 1  1.26859980008001 -4.56645094939494  1.10270995859586
 1  2.60648169106911 -4.99257573657366  0.41465540394039
 1  3.94680912471247 -4.15451297979798 -2.05364441704170
 1  5.05144726622662 -2.88800768156816 -1.34337925942594
 1  4.63182027832783 -2.66789884548455 -2.81275159745975
 1  5.11931473857386 -0.16589069786979 -1.89292598079808
 1 -9.41810133233323  0.62437333453345 -0.40594128032803
 1 -9.90207837293729  0.59521389978998 -2.16447618931893
 1  3.78809524092409  3.14094666326633  3.98588677087709
 1  6.61938694429443  1.21608581508151 -1.82861036423642
 1  4.61614262446245  5.27146023802380 -2.39151620662066
 1  3.72812081618162  5.55143221312131 -0.69633271647165
 1  5.49750152165216  5.39815627022702 -0.92349409750975
 1  0.73721125962596 -7.95888713121312  1.46530620372037
 1  7.80286156795680  2.62872017831783 -3.17888665086509
 1  6.64260570487049  4.11291886318632 -2.85974886398640

