%nproc=4
%Mem=2GB
# td=(NStates=1) iop(3/107=0140000000,3/108=0140000000) iop(3/107=0140000000,3/108=0140000000) CAM-B3LYP/6-31G(d,p) 

TD

0 1
12 -6.83635620772077  0.65536468056806  0.00731835133513
 6 -4.57426453295330 -2.01500992279228  0.28965924292429
 6 -4.21875369076908  2.76888852195219  0.93933681528153
 6 -9.01350405510551  3.24532855695570 -0.27909741144114
 6 -9.42679077667767 -1.72878590819082 -0.48961902060206
 7 -4.60625569746975  0.48884828252825  0.45618465056506
 6 -3.93245051065107 -0.86002570937094  0.52697325272527
 6 -2.37868128672867 -0.52413417261726  0.86132819511951
 6 -2.54029399519952  1.08693884268427  1.25624778727873
 6 -3.92903916681668  1.46580666586659  0.86145091979198
 6 -2.10948723442344  1.25165696159616  2.71459602240224
 6 -1.50759950835084 -1.00778334173417 -0.33739241294129
 6  0.00141202290229 -1.00190189678968  0.30190926442644
 6  0.91149222842284 -1.32272950985098 -0.93051122492249
 8  0.82445251335134 -1.14611722422242 -2.08952994319432
 8  1.95757604420442 -2.13365366396640 -0.36502142464246
 7 -6.63115485768577  2.61803217321732  0.25874962286229
 6 -5.54620518141814  3.30543918711871  0.61681797799780
 6 -5.92659687488749  4.80814049884988  0.55475034363436
 6 -7.12209292269227  4.90117620812081  0.37486406970697
 6 -7.65265696959696  3.56597540594059  0.13722855425543
 6 -4.97173209350935  5.68592602310231  1.11202887088709
 6 -7.99349091039104  6.24360128022802  0.49063858755876
 8 -7.64707862406241  7.30988260486049  0.72650050685069
 7 -8.97976152965296  0.70155101430143 -0.32950559965997
 6 -9.59734340674067  1.94553928922892 -0.45200625292529
 6 -10.91446807710771  1.54441431253125 -0.77069285048505
 6 -11.07494185168517  0.17948885328533 -0.73886474197420
 6 -9.77677934123412 -0.32347051025103 -0.40936301300130
 6 -12.09220599589959  2.50972716581658 -0.85320997179718
 6 -12.21842496299630 -0.63295685798580 -1.11488962266227
 6 -12.41898876097610 -0.84862702790279 -2.71768456315632
 7 -6.82828931183118 -1.31374393569357 -0.14098674317432
 6 -8.17458011961196 -2.25448544524452 -0.36373957195720
 6 -7.61470905600560 -3.61217854025403 -0.41527253735374
 6 -6.25025064626463 -3.64626378727873 -0.14991325192519
 6 -5.84552084078408 -2.26716553105311  0.05993217751775
 6 -8.63669219271927 -4.80043742154215 -0.56284910081008
 6 -5.00710691519152 -4.38636443454345  0.03185121082108
 8 -4.90670241894189 -5.58915945424542  0.07302780938094
 6 -3.82558628402840 -3.48525908510851  0.39085373257326
 6 -3.27963147404740 -3.72592876837684  1.74987470047005
 8 -3.83750899099910 -4.05587232203220  2.78095676547655
 8 -1.92441411631163 -3.32136844214421  1.53327326652665
 6 -1.34836335843584 -3.71112620272027  2.59221364656466
 6  3.04153604640464 -2.39616479337934 -1.25007625172517
 6  4.04733850125013 -1.34290129122912 -1.17899343164316
 6  5.18726948234823 -1.32222909430943 -1.85006120772077
 6  5.18636262006201 -2.22632576727673 -3.27027400960096
 6  6.20653447804781 -0.27219487238724 -1.49992655115512
 6  7.69110780478048 -0.76878266036604 -0.79987672497250
 6  8.62183474377438  0.35926156075608 -0.49700818131813
 6  9.81515460486049 -0.40427734803480  0.09841153545355
 6  9.60825834213421 -0.87392620732073  1.69137350615061
 6  11.06380871087109  0.66678153235324  0.17826266466647
 6  12.35156042654265  0.07806911411141  0.78265657685769
 6  13.39861140374037  1.07745502020202  0.57774067246725
 6  14.91118745394540  0.57215049314932  0.73807846994699
 6  15.11261624972497  0.18978669816982  2.01690161416142
 6  15.94948457685769  1.54460936293629  0.20034323962396
 6  17.41567104520452  0.78995421982198  0.06911003710371
 6  18.50221976937694  1.80379757095710 -0.24218436523652
 6  19.83109531063106  1.05298379317932 -0.41863194689469
 6  19.78392819411941 -0.15940050975097 -1.71964775597560
 6  20.85666283518352  2.27686910491049 -0.84583967986799
 1 -3.63395403370337  3.28004925592559  1.25654505620562
 1 -9.75476945944594  4.12914199929993 -0.38406204010401
 1 -10.39400189178918 -2.53767416671667 -0.61649447534753
 1 -2.05005752255226 -1.21819943774377  1.73966401470147
 1 -1.68284762336234  1.56830730693069  1.00340679407941
 1 -1.30529191289129  0.84544285868587  2.99032974407441
 1 -2.38532670657066  2.54063263966397  3.07510362816282
 1 -2.91063339583958  0.67736562186219  3.39572544164416
 1 -1.96105512581258 -2.24491576457646 -0.85261304810481
 1 -1.56384155315532 -0.31966343924392 -1.35686547734773
 1  0.17461545984598  0.03332189888989  0.69436530173017
 1 -0.19528324812481 -1.87180351415141  1.07179741184118
 1 -4.09076360676068  5.73572140004000  0.38227318501850
 1 -5.31435171577158  6.96474915081508  0.91505841194119
 1 -4.69133016121612  5.70200916191619  2.16990476277628
 1 -8.93755676977698  6.27751286048605  0.61614523872387
 1 -12.14443399699970 -1.70163103060306 -0.67744217141714
 1 -13.18428464346434 -0.21448504870487 -0.65343297969797
 1 -13.53636145924593 -0.96026814221422 -2.97398451555155
 1 -12.37423438723873 -0.04964754325432 -3.36093826332633
 1 -11.83135996039604 -1.94222753975398 -3.11236784418442
 1 -9.44643382668267 -4.72845940154015 -1.51951417941794
 1 -8.20557577217722 -5.64781479407941 -0.95572522442244
 1 -9.49502678267827 -5.07159912111211  0.28846345584558
 1 -2.88553813521352 -3.31588531343134 -0.51229953675368
 1  3.47351896729673 -3.32916018981898 -0.93101881898190
 1  2.51717600640064 -2.51917783278328 -2.23167340264026
 1  4.19550687838784 -0.60655340374037 -0.24749114751475
 1  4.52306536353635 -2.39631310381038 -4.10295041004100
 1  5.72144572297230 -1.89859853525352 -3.37554877877788
 1  5.44861868926893 -3.01795440974097 -2.84676886068607
 1  6.33604402630263  0.19242457985799 -2.76350896809681
 1  5.82107721712171  0.62122767056706 -1.07701196459646
 1  7.30886206510651 -1.34103230033003  0.29112083368337
 1  8.09444484288429 -1.86207499779978 -1.71617109300930
 1  8.85951808320832  0.91642223702370 -1.31434421972197
 1  8.12527102520252  1.23239842804280  0.16172188058806
 1  10.32451489858986 -1.31328877257726 -0.38289544714471
 1  8.78435067936794 -1.71371018671867  1.53021138193819
 1  10.41101717111711 -1.17304118531853  2.38708059945995
 1  8.94925813741374  0.06499527712771  2.16989829492949
 1  11.15223886168617  1.15090785068507 -0.82809998159816
 1  10.48608835543554  1.26416529212921  1.02579645994599
 1  12.37041458365836 -0.44065650515051  1.74291797509751
 1  12.31912406640664 -1.17758597919792  0.09282628512851
 1  13.45603047304731  1.72860240524052 -0.40498940354035
 1  13.29470151495149  2.02201645294529  1.37192298169817
 1  14.85650707650765 -0.40941845784578 -0.05429362056205
 1  15.51392129202920  0.93358375387539  2.58401117411741
 1  14.11130840434043 -0.09822749464947  2.46952445054505
 1  15.89687672077208 -0.50278386148615  2.16632311001100
 1  15.54119525442544  1.74244423782378 -0.95272524722472
 1  16.47111114371437  2.26861639713971  0.76897522072207
 1  17.50245156025602  0.01346451705171  0.82010219691969
 1  17.73467099129913 -0.15714754555456 -0.72857423482348
 1  18.33578858595860  2.01240778857886 -1.45461845014501
 1  18.39952994909491  2.76716062296230  0.65965263576358
 1  19.89874243544354  0.17688053425343  0.42759611041104
 1  19.59710802880288  0.10891594119412 -2.62828495369537
 1  20.86621091109111 -0.78502030383038 -1.79496362976298
 1  19.44966769376938 -0.99173689208921 -1.45088316301630
 1  20.94498127672767  2.99725930503050  0.24386514011401
 1  21.91557929822982  1.67258384108411 -0.95343805880588
 1  20.38925557845785  2.77640512771277 -1.90061485778578
 1 -0.01953757885789 -3.91967471687169  2.18463681168117
 1 -1.76049573057306 -4.73765103880388  3.17316795339534
 1 -1.29530354365437 -3.06875535263526  3.41484563776378
 8 -11.88604697899790  3.75402020122012 -0.84259607330733
 1 -13.08380889238924  2.01004224432443 -1.03508411341134

