%nproc=4
%Mem=2GB
# td=(NStates=1) iop(3/107=0140000000,3/108=0140000000) iop(3/107=0140000000,3/108=0140000000) CAM-B3LYP/6-31G(d,p) 

TD

0 1
12 -6.76187875997600  0.60394953905391  0.04135175467547
 6 -4.51684879137914 -2.06342476427643  0.41798207520752
 6 -4.25294711011101  2.77770940404040  0.82897577917792
 6 -8.98354105880588  3.17301132523252 -0.16127562926293
 6 -9.48637673527353 -1.69053208280828 -0.59435949464947
 7 -4.68182325422542  0.42601199889989  0.44907393949395
 6 -3.97059432503250 -0.88197790459046  0.55402595799580
 6 -2.52533595219522 -0.60275203440344  0.87245930823082
 6 -2.32819278507851  0.93627377617762  1.10455261776178
 6 -3.87891415431543  1.42371245644564  0.79095387008701
 6 -1.93628991469147  1.25133692959296  2.63139770257026
 6 -1.57056580498050 -1.16299886328633 -0.27456613031303
 6 -0.13087120542054 -1.38161986858686  0.30878995249525
 6  0.72023310251025 -1.44761199809981 -0.84378255205521
 8  0.64040410851085 -1.26848946144614 -2.04072506270627
 8  1.89069935653565 -2.13032333093309 -0.25713063556356
 7 -6.54732647484748  2.67603797379738  0.09163291119112
 6 -5.53299386028603  3.36482512571257  0.56721301750175
 6 -5.73339755495549  4.73800348514851  0.74884975357536
 6 -7.07375808920892  4.94633072357236  0.46035261856186
 6 -7.74158586248625  3.62590139853985  0.10867569896990
 6 -4.62598751905190  5.79878730923092  0.84948261626163
 6 -7.87769933123312  6.17842476257626  0.46270579427943
 8 -7.29486340254025  7.38448006460646  0.42683053985399
 7 -8.85726928042804  0.76432729192919 -0.29958260736074
 6 -9.56873054545455  1.84891962726273 -0.37903895619562
 6 -10.97814444474447  1.60602047314731 -0.68820460166017
 6 -10.97937229472947  0.29119002340234 -0.91648250375038
 6 -9.72122378567857 -0.33559172237224 -0.62537461416142
 6 -12.03837061236124  2.53369956305631 -0.90507515831583
 6 -12.15036815731573 -0.48035159745975 -1.36715484918492
 6 -12.14529139123912 -0.57100926612661 -2.85795859055906
 7 -6.85060154305430 -1.40925348664867 -0.10820346484648
 6 -8.18713137473747 -2.20768076477648 -0.49319251725172
 6 -7.78493607870787 -3.63202052445244 -0.32961397149715
 6 -6.44532015321532 -3.63194235513551 -0.15851411201120
 6 -6.00831712041204 -2.18033684818482  0.13949013331333
 6 -8.59473799729973 -4.80807818561856 -0.73015583148315
 6 -5.24882108660866 -4.49455525362536  0.05931395709571
 8 -4.92801455015501 -5.74664520282028  0.12751325792579
 6 -4.03836756215621 -3.45628618781878  0.33255790299030
 6 -3.44128763966397 -3.73030920642064  1.79830954395440
 8 -3.95019025912591 -4.03859059385939  2.82523119291929
 8 -2.07507918281828 -3.87910421572157  1.62229216841684
 6 -1.28034655675568 -4.25113020312031  2.82443686888689
 6  3.06627852065207 -2.28468364526453 -1.30591183528353
 6  3.94415818321832 -1.17202420352035 -0.94494002630263
 6  5.11709246464646 -1.18023489488949 -1.56562276387639
 6  5.53456744054405 -2.01535467016702 -2.80708769096910
 6  6.09744356895690 -0.09839749264927 -1.16943350185018
 6  7.40357905190519 -0.71891767386739 -0.58106484378438
 6  8.45974853515351  0.47298293289329 -0.26288476897690
 6  9.82080516991699 -0.26058297859786  0.25129682398240
 6  9.62212972927293 -1.12374118881888  1.65581995079508
 6  10.94891722172217  0.84209906410641  0.20094493289329
 6  12.31968723922392  0.23449475667567  0.18468677987799
 6  13.50192173477348  1.16795407010701  0.40730362876288
 6  14.87650398559856  0.59676295439544  0.57856251835184
 6  15.21207619571957  0.27541526102610  2.37752767676768
 6  15.90684031243124  1.56207110911091  0.06918012331233
 6  17.28939841794179  0.78235345974597 -0.00734760866087
 6  18.44900444784479  1.78945613681368 -0.56378652545255
 6  19.85707790889089  1.09092758755876 -0.57949803350335
 6  19.76825662696270  0.14763019331933 -1.74834062526253
 6  20.93466063496350  2.16237765576558 -0.86736183208321
 1 -3.14764540284028  3.35242649364937  1.09611901360136
 1 -9.63877786028603  4.26335542064206 -0.14729836373637
 1 -10.46619911151115 -2.37510791009101 -0.55915874177418
 1 -2.21510402720272 -1.25386300410041  1.98019806810681
 1 -1.50063940254025  1.52000247644765  0.14471092449245
 1 -0.97263864756476  0.89191750615062  2.92328303940394
 1 -1.28402657655766  2.07221579797980  2.87031314911491
 1 -2.77651998449845  1.27293517881788  3.59506537563756
 1 -1.92273129342934 -1.96026729972997 -0.58757654445445
 1 -1.59883505250525 -0.53457493039304 -1.08687847864786
 1  0.09328732703270 -0.31202263556356  0.69090495569557
 1  0.18354463466347 -2.28536487028703  0.80792102420242
 1 -3.76760129052905  6.10157798569857  0.07995295299530
 1 -5.09459974057406  6.71059373527353  0.79648655475548
 1 -4.50039106730673  5.71551051205121  1.79029680198020
 1 -9.05260827492749  6.21192630183018  0.45451907610761
 1 -12.09661921552155 -1.34184505200520 -0.84546897409741
 1 -13.30188640364036 -0.33327692789279 -1.02484012041204
 1 -13.30453827692769 -0.86461857725773 -2.84359147624763
 1 -12.50913787758776  0.58440586208621 -3.18995116461646
 1 -11.29496632103210 -1.15684900190019 -3.21536814421442
 1 -8.89075825912591 -4.55326188178818 -1.91728395639564
 1 -7.95124033863386 -5.85225523812381 -0.55203485538554
 1 -9.69478675867587 -5.18324028522852 -0.22375776627663
 1 -3.06645622702270 -3.80775450035003 -0.07055536233623
 1  3.57249886528653 -3.36871414521452 -1.07602331943194
 1  2.45222951175117 -1.99855577057706 -2.49990022532253
 1  3.60721804950495 -0.87499024742474  0.17634123572357
 1  4.74879793679368 -1.78810228272827 -3.41083119811981
 1  6.53160673907391 -1.83805248064806 -3.26045726962696
 1  5.97356118351835 -3.13646626092609 -2.55329951375137
 1  6.57550797269727  0.38189352675268 -1.80662327952795
 1  5.77717282668267  0.82744829262926 -0.59307357075707
 1  7.13498467736774 -1.40591878897890 -0.02650092849285
 1  7.80315571397140 -1.36934572487249 -1.40559003490349
 1  8.67453958535853  0.73934452925292 -1.33853663896390
 1  8.37784628272827  1.08289347754776  0.22310801920192
 1  10.36680912801280 -1.01513895759576 -0.53205036263626
 1  8.58899114341434 -1.57081589728973  1.50972933373337
 1  10.64417048644865 -1.91844572577258  1.74858675007501
 1  9.54797800940094 -0.03204442684268  2.73866517161716
 1  10.75209884768477  1.13073583348335 -0.97094426602660
 1  10.82947269386939  1.94094296989699  0.79095297559756
 1  12.05524306650665 -0.24770721022102  1.30686436973697
 1  12.42393454745475 -0.58635685628563 -0.60619361686169
 1  13.50690556055606  1.99475902090209 -0.12479138373837
 1  13.29403144794479  1.41334558585859  1.42464825422542
 1  15.10342176797680 -0.43040055605561 -0.10666885808581
 1  14.58706860676068  0.98723911941194  3.35304807780778
 1  14.16476374987499 -0.61446911881188  2.68721621972197
 1  16.31703873697370 -0.12914649774978  2.75973245094510
 1  15.87943907880788  2.02547254065407 -0.90746072077208
 1  16.47797182978298  2.24222375787579  1.04882320552055
 1  17.77195851095109  0.24269744034403  1.06640682738274
 1  17.31186871107111 -0.01920375117512 -0.78617999539954
 1  17.99146415351535  2.31987853565356 -1.65092808110811
 1  18.72244224032404  2.80173408030803  0.16373304380438
 1  20.15616817801780  0.66376922312231  0.32939629042904
 1  19.88881719971997  0.72983803340334 -2.82560468566857
 1  20.68145243524352 -0.51804360616062 -1.74595872927293
 1  18.68109083608361 -0.41887960636064 -2.13134120882088
 1  21.37562434103410  2.23912349144915  0.09254000760076
 1  21.88132587288729  1.56758334103410 -1.07709042404240
 1  20.50210686358636  2.95020250745074 -1.37449224552455
 1 -0.42513813891389 -4.67477022642264  2.31215956395640
 1 -1.95744542554255 -4.81668894259426  3.81907254385439
 1 -0.95544955825583 -3.24800327742774  3.31233538673867
 8 -11.86199457375738  3.88888368756876 -0.68508032173217
 1 -13.43871438293830  2.03961520162016 -1.23536414141414

