%nproc=4
%Mem=2GB
# td=(NStates=1) iop(3/107=0140000000,3/108=0140000000) iop(3/107=0140000000,3/108=0140000000) CAM-B3LYP/6-31G(d,p) 

TD

0 1
12 -6.86044861696170  0.59522866696670  0.13531115061506
 6 -4.54631173767377 -2.05327374917492  0.28409868686869
 6 -4.25660747614761  2.78449008210821  0.97551043264326
 6 -8.89369207390739  3.19624364846485 -0.28854835653565
 6 -9.31764986258626 -1.75479850945094 -0.58122818151815
 7 -4.68413348524853  0.28750814851485  0.58625765786579
 6 -3.94751201680168 -0.83619332613261  0.64484503990399
 6 -2.45527894649465 -0.72403416261626  0.97728979127913
 6 -2.41001096689669  0.87825797459746  1.15814797729773
 6 -3.94380064296430  1.45468555375538  0.98472324702470
 6 -2.03014930063006  1.17848964486449  2.57035159795980
 6 -1.59878862726273 -1.25070763416342 -0.11210988468847
 6  0.00386226792679 -1.12691439803980  0.41869094259426
 6  0.88635971517152 -1.38453569046905 -0.71507968176818
 8  0.67004707280728 -1.07593020552055 -1.81791278147815
 8  2.03091337793779 -2.04278457705771 -0.26627154965497
 7 -6.64624636683668  2.50688105810581  0.35598934683468
 6 -5.48649921082108  3.20413905710571  0.58775507170717
 6 -5.81087530273027  4.68130781558156  0.68215308390839
 6 -7.16959767316732  4.87159324982498  0.49322590589059
 6 -7.73832553645365  3.48883769216922  0.11674650605060
 6 -4.86821174147415  5.79914734523452  1.04711237923792
 6 -7.85183674497450  6.18999591969197  0.36348587228723
 8 -7.28510242644264  7.25394701130113  0.31926978377838
 7 -8.82178573207321  0.76478733793379 -0.24203685278528
 6 -9.42823649604961  1.85035977127713 -0.45183623592359
 6 -10.79068569886989  1.55434530563056 -1.05284106530653
 6 -10.98543290079008  0.24694559895990 -0.93173402890289
 6 -9.81267293059306 -0.38474663786379 -0.52492456915692
 6 -11.87549432473247  2.57521371447145 -1.13624827562756
 6 -12.14377749824982 -0.50874443674367 -1.22700083378338
 6 -12.37858472057206 -0.66325849104910 -2.95433822852285
 7 -6.85996247914792 -1.35997855915592 -0.11541418591859
 6 -8.02928559015901 -2.23157315401540 -0.39677287528753
 6 -7.67892547764777 -3.68727605000500 -0.29863087318732
 6 -6.29671529272927 -3.67675683658366 -0.04538279887989
 6 -5.91863815251525 -2.26741555605561  0.16547273157316
 6 -8.34559308280828 -4.82759013681368 -0.60215303120312
 6 -4.98901510601060 -4.42230802890289  0.14079210491049
 8 -4.95669741844184 -5.70078061636164  0.08074858145815
 6 -3.81052477787779 -3.37755831503150  0.41174582178218
 6 -3.32923643454345 -3.76349252475248  1.74476418941894
 8 -4.07516275637564 -3.92391912671267  2.73861253105310
 8 -1.83876555145515 -3.71703800910091  1.61548148734873
 6 -1.15799432153215 -3.80794588468847  2.94102852805281
 6  2.92740463326333 -2.27641281818182 -1.17626887098710
 6  4.06662042944294 -1.21778877997800 -0.97225275757576
 6  5.14614536993699 -1.03020989238924 -1.82482868446845
 6  5.43015699949995 -1.67363049774978 -3.13234021622162
 6  6.12204602920292 -0.00921857475748 -1.40202676117612
 6  7.34375306930693 -0.59504528662866 -0.93226996429643
 6  8.44385694599460  0.40949658425843 -0.45723420392039
 6  9.71490457985799 -0.26567348764876  0.08619031333133
 6  9.55651316761676 -0.74284309900990  1.35690005880588
 6  10.77339966996700  0.84220907510751  0.20660549894990
 6  12.25699096959696  0.03305461266127  0.55536384758476
 6  13.45539708230823  1.14875214991499  0.71671456985699
 6  14.76886322152215  0.32141541964196  0.59929459155916
 6  14.88139312741274 -0.29820210071007  1.83849377337734
 6  15.77274690309031  1.36703160516052  0.15408861416142
 6  17.10021950005001  0.79737496189619 -0.12133900780078
 6  18.32642218961896  1.88563575477548 -0.38218836563656
 6  19.83493569466947  1.01343983878388 -0.62063214691469
 6  19.84312411371137  0.47729315961596 -2.15227101830183
 6  21.07329449834983  1.85165658365837 -0.30416551245125
 1 -3.34687532583258  3.58092934393439  1.19931933363336
 1 -9.81845582808281  4.03322240734073 -0.44399803370337
 1 -10.28890138173817 -2.19119951925192 -0.56315914181418
 1 -2.27355987278728 -1.20935855365537  1.84449449774977
 1 -1.67237657625763  1.01170164636464  0.53768022142214
 1 -1.09118050175018  0.74880319471947  3.02766347744774
 1 -2.00657883178318  2.34595317171717  2.56709282708271
 1 -2.70164249674968  0.74443232853285  3.21090695979598
 1 -1.65920494079408 -2.38705997899790 -0.53408119491949
 1 -1.75303047204721 -0.54851632453245 -1.04349414021402
 1 -0.14359636133613 -0.03262469576958  0.95630149534953
 1  0.16331261146115 -1.91642797659766  1.28129836193619
 1 -4.00930546094609  5.39704753265327  0.95299025672567
 1 -5.11227150775078  6.70832350825083  0.70388729482948
 1 -5.00438146634663  5.82781174217422  2.15706347864786
 1 -8.89600261436144  5.98133324252425  0.23781740594059
 1 -12.28866842044204 -1.51362222972297 -0.77790221742174
 1 -13.03066928192819 -0.24241784198420 -0.75865350175018
 1 -13.34878270137014 -1.86707882328233 -3.04456157325733
 1 -12.78277524132413  0.11563898539854 -3.30979314881488
 1 -11.75317214161416 -1.19015233223322 -3.18479508690869
 1 -8.81814099739974 -4.95051160676068 -1.39045127312731
 1 -7.74417963256326 -5.83383339593959 -0.76340599249925
 1 -9.27813509350935 -4.96794875607561  0.19968457795780
 1 -3.09948953035303 -3.51626535143514 -0.50445875267527
 1  3.52362397779778 -3.07093436723672 -0.75702141924193
 1  2.33811810061006 -2.20800671567157 -2.04724495979598
 1  3.82886021372137 -0.81141388978898 -0.20569696809681
 1  4.49621267826783 -1.16785025752575 -3.78401851685169
 1  6.28298187658766 -1.75905458085809 -3.61823304720472
 1  5.10409423682368 -3.11854446874688 -2.99492367616762
 1  6.18792921482148  0.74603994139414 -2.35186780398040
 1  5.77582269166917  0.65850139793979 -0.59073333673367
 1  7.11078225712571 -1.22773097019702 -0.34262254065407
 1  7.40796619501950 -1.05631442174217 -1.71296077197720
 1  8.58678080948095  0.99745033983398 -1.35900868616862
 1  8.04807330543054  1.38062325052505  0.38131383978398
 1  9.81685413251325 -1.08076552025202 -0.54713187078708
 1  8.92168441274127 -1.56034485018502  0.70954931573157
 1  10.54821089048905 -1.33990787198720  2.11503339473947
 1  8.68482169376938 -0.10739196159616  2.08793009810981
 1  10.78177181498150  1.26051881178118 -0.82770994259426
 1  10.30502024862486  1.81052992859286  0.95806968726873
 1  12.04157169936994 -0.69817225672567  1.53522720602060
 1  12.59785193919392 -0.82938115871587 -0.26015901340134
 1  13.25696056605661  1.65623516851685  0.03632472787279
 1  13.38856090089009  1.79434368566857  1.69601539093909
 1  14.69078050385039 -0.45234275027503  0.09768157695770
 1  15.28902880278028  0.51040143564356  2.48941171417142
 1  14.01104837833783 -0.99952762466247  2.08954645274527
 1  15.62937997109711 -0.88956253935394  1.94379085678568
 1  15.42500363526353  1.45520551395140 -0.94057403210321
 1  16.01130516311631  2.44397393289329  0.79375769896990
 1  17.42452376747675  0.42410558115812  0.96171635833583
 1  17.19761728592859  0.15137330653065 -0.94848622602260
 1  17.91192619971998  2.30441698949895 -0.96955994429443
 1  18.79066906300630  2.51843575047505  0.43259993049305
 1  19.44263682488249 -0.08527568136814  0.03868721952195
 1  20.01465978397840  1.34048909850985 -3.13889601480148
 1  20.86964125412541 -0.27809961176118 -2.32240637403740
 1  19.13643637063706 -0.35278299669967 -2.02134020872087
 1  21.37581436003600  2.17566714581458  0.65083583718372
 1  21.89740748104811  1.29566614931493 -0.56189890489049
 1  21.10645729862986  2.77609509670967 -0.84326912321232
 1 -0.14963058815882 -3.89707245664567  2.52013036103610
 1 -1.46224590559056 -4.59494676837684  3.24000463706371
 1 -1.48940295359536 -2.96595507260726  3.63028718191819
 8 -11.72373074737474  3.84100890009001 -0.99584139783978
 1 -12.83774428592859  2.16174741484148 -1.53482408740874

