%nproc=4
%Mem=4GB
# td=(NStates=1) iop(3/107=0140000000,3/108=0140000000) iop(3/107=0140000000,3/108=0140000000) CAM-B3LYP/6-31G(d,p) 

TD

0 1
12 -5.61887339393939  1.27836271057106  0.18620722592259
 6 -4.98805919311931 -2.05629409270927 -0.39826669346935
 6 -3.49286807590759  1.11913219801980  2.76095146844684
 6 -6.25792458815882  4.56918018221822  0.70198040684068
 6 -8.06806257335734  1.09154000470047 -2.33854152765277
 7 -4.41747600090009 -0.30278847064706  0.98867020582058
 6 -4.33370689818982 -1.58817251885189  0.64585693529353
 6 -3.23048617311731 -2.31632493529353  1.43355771947195
 6 -2.97831100210021 -1.35623851475148  2.65103165926593
 6 -3.59996742414241 -0.03791641934193  2.15797038223822
 6 -3.54847788718872 -1.74345778717872  3.99461216061606
 6 -2.06355154835484 -2.63596100540054  0.74368967446745
 6 -0.99425106860686 -3.47375495609561  1.50462405040504
 6  0.22424752525253 -3.77722156285629  0.61296949164916
 8  0.48608867316732 -3.45582289588959 -0.48299453365337
 8  0.99781662736274 -4.69712933023302  1.26572117941794
 7 -4.90884170047005  2.69946932383238  1.46212644434443
 6 -4.04726681648165  2.39359678137814  2.40134073737374
 6 -3.82282178587859  3.68800730293029  3.16097665386539
 6 -4.54078463116312  4.64987651595160  2.56691596289629
 6 -5.18865496969697  4.00441853705371  1.48545463776378
 6 -2.89481484458446  3.81727910371037  4.36568075747575
 6 -4.58265479607961  6.03320074057406  2.84873437823782
 8 -4.07770781878188  6.49406729472947  3.91372527242724
 7 -6.84064786468647  2.70585048084808 -0.76265792209221
 6 -6.94743745854585  3.93343296049605 -0.47489917861786
 6 -7.97245243164316  4.58865559035904 -1.18233234273427
 6 -8.56770622392239  3.59901683158316 -2.04938388278828
 6 -7.85904479497950  2.35528153695370 -1.75897184368437
 6 -8.28692168306831  6.07808771817182 -1.21030053885389
 6 -9.55126949024903  3.80914131233123 -3.19356398919892
 6 -8.90900235393539  4.13536168236824 -4.50214661866187
 7 -6.42236065506551 -0.12726774447445 -1.08557364936494
 6 -7.39700923052305 -0.06794286288629 -2.04425863656366
 6 -7.54394190139014 -1.39045074867487 -2.73692621522152
 6 -6.63169271807181 -2.24789436123612 -2.05739190489049
 6 -6.05106352175217 -1.37771133623362 -1.08935506590659
 6 -8.63693915171517 -1.62810293629363 -3.66981387758776
 6 -6.20344401150115 -3.61661724562456 -1.98037159225923
 8 -6.59824421992199 -4.55188288668867 -2.71071733683368
 6 -5.17414597669767 -3.57650570317032 -0.84829714951495
 6 -5.38956643404340 -4.67447288838884  0.12202587438744
 8 -5.87919369096910 -4.43584259235924  1.24796115951595
 8 -5.07674737293729 -5.90803199959996 -0.44748789338934
 6 -5.37531509570957 -7.01603345664566  0.31458328812881
 6  2.21289226242624 -4.97228834903490  0.61926588098810
 6  3.33476801180118 -4.05921608250825  1.07687558735874
 6  4.08169755995600 -3.22818568866887  0.28300193519352
 6  3.89222356125613 -3.08389333063306 -1.19631913641364
 6  5.28382480828083 -2.47491253885389  0.82594639343934
 6  6.68666353765377 -2.72279520472047  0.05768723612361
 6  7.80918624222422 -1.94180353585359  0.61874756525653
 6  9.20253107440744 -2.07770260386039 -0.03482126462646
 6  9.76511289298930 -3.51309194959496  0.11099764206421
 6  10.15956653575357 -0.96645688308831  0.49909242474247
 6  11.42752005440544 -0.92147175407541 -0.35791455765577
 6  12.26947463606361  0.20197482498250  0.03296014361436
 6  13.70276273207321  0.37026189608961 -0.62443720692069
 6  14.66050434943494 -0.78841824442444 -0.30272442334233
 6  14.35785172477248  1.79848602020202 -0.24012326712671
 6  15.59624381478148  2.26584461266127 -1.05603059805981
 6  16.01249383378338  3.61571632443244 -0.70917153035304
 6  17.41066631573158  3.90523836543654 -1.35171910711071
 6  17.22315490519052  4.11011590329033 -2.85486771097110
 6  17.93412281838184  5.27388265356536 -0.69737919681968
 1 -2.68047377017702  1.18201247664766  3.62488295669567
 1 -6.26158413721372  5.67241262166217  0.61446043774377
 1 -9.06315672287229  1.03267357025703 -3.10473595239524
 1 -3.57597866266627 -3.28313362876288  1.91464952575258
 1 -1.96044316821682 -1.03096075767577  2.56779805590559
 1 -3.10121990109011 -2.74260742194219  4.33585712971297
 1 -3.39751054375438 -1.05792569696970  4.83135516531653
 1 -4.63072558425843 -1.95046412731273  3.87026097659766
 1 -2.32875818951895 -3.23831334863486 -0.21422204600460
 1 -1.49981781418142 -1.86761587788779  0.47806592819282
 1 -0.69891532503250 -3.18741003660366  2.40596481518152
 1 -1.47032175377538 -4.48372550375038  1.76344814281428
 1 -1.80917103090309  3.64723424782478  3.93789969966997
 1 -3.15169615971597  4.82786999299930  4.92610886858686
 1 -3.10585358035804  2.78977997549755  5.10801580758076
 1 -5.21148421232123  6.69394358875888  2.29374469586959
 1 -10.28797793129313  3.02452310941094 -3.16533978567857
 1 -10.16381717961796  4.68443228732873 -2.93520381108111
 1 -9.67471727152715  4.49662807680768 -5.21137633993399
 1 -8.35003451285129  4.98960870627063 -4.54564451945195
 1 -8.32022187118712  3.31266062486249 -4.88652857765777
 1 -8.75950353995400 -1.09646018891889 -4.52231322962296
 1 -8.63049403240324 -2.69499290439044 -4.11607424442444
 1 -9.51598167766777 -1.54289111251125 -3.31382828952895
 1 -4.16127348474847 -3.85373019961996 -1.42064535143514
 1  2.36277741074107 -6.03528147114711  0.99201515841584
 1  2.16567731113111 -5.18386536263626 -0.53134658425843
 1  3.65793791609161 -4.23920320212021  2.13423843144315
 1  2.89338432513251 -3.31661728282828 -1.36997953895390
 1  4.32393700700070 -2.16438999829983 -1.58375084558456
 1  4.38899107310731 -3.89127285648565 -1.69817874377438
 1  5.06500654155416 -1.31762818681868  0.74698658215822
 1  5.56637516481648 -2.86683831623162  1.81864674497450
 1  6.78119564626463 -3.88558175027503  0.05266315031503
 1  6.39524968536854 -2.47141475047505 -0.99575017051705
 1  7.60168910021002 -0.88601192629263  0.52384963046305
 1  8.03879598249825 -2.08381496459646  1.71796618191819
 1  9.03348745804580 -1.87783605880588 -1.13005634373437
 1  8.95557007570757 -4.28252702410241 -0.41148494089409
 1  10.72243158395840 -3.75394959705971 -0.53973408690869
 1  9.89208827022702 -3.83205429692969  1.05731617431743
 1  9.56485563616362 -0.13933820762076  0.28908427222722
 1  10.32117221472147 -1.00075660956096  1.42949248924893
 1  12.11120626192619 -1.89830986288629  0.14168979577958
 1  11.33370945764577 -1.04142704760476 -1.39353068666867
 1  11.88143917741774  1.21269569876988 -0.08489804500450
 1  12.58158298159816  0.25230642204220  1.09791807200720
 1  13.62713951465146  0.09669410171017 -1.86928916761676
 1  14.82172151045105 -0.97133534623462  0.82734841484148
 1  14.22049762076207 -1.88767778407841 -0.70316663816382
 1  15.58656964536454 -0.52624582278228 -0.73051994449445
 1  13.64361255545555  2.48613323242324 -0.30329211691169
 1  14.40309701000100  1.63389367856786  0.76589380328033
 1  16.39004065986598  1.58712732543254 -0.89820631133113
 1  15.16658224162416  2.29411332413241 -2.08626000570057
 1  15.23832523712371  4.37171254925493 -1.31120311841184
 1  16.25289805990599  3.83406004740474  0.55816571697170
 1  18.30451413281328  3.22852434363436 -0.98084716431643
 1  16.46305702610261  4.95299182808281 -2.96680904070407
 1  17.97771369486949  4.59324883818382 -3.45580018511851
 1  16.97885808600860  3.31657272727273 -3.42797083168317
 1  18.29944599179918  5.11769298679868  0.26379804400440
 1  18.86354387668767  5.65937008920892 -1.32940985538554
 1  17.02809436033603  6.07284678777878 -0.60137419871987
 1 -5.26269157055706 -7.92951238433843 -0.30493403110311
 1 -6.54287871817182 -6.72668975557556  0.59162266976698
 1 -4.58159632823282 -6.96759833543354  1.18007246384639
 8 -7.79766735833583  6.89988648944894 -0.40296808080808
 1 -9.08573687078708  6.20625627052705 -1.91632731553155

