%nproc=4
%Mem=2GB
# td=(NStates=1) iop(3/107=0140000000,3/108=0140000000) iop(3/107=0140000000,3/108=0140000000) CAM-B3LYP/6-31G(d,p) 

TD

0 1
12 -6.65283785588559  0.62053119721972  0.19725734523452
 6 -4.54516162266227 -2.12541096289629  0.47039731673167
 6 -4.04082589798980  2.73791542464246  1.01756463806381
 6 -8.87012971767177  3.37413143724372 -0.27976747844784
 6 -9.26685478307831 -1.66408943854385 -0.74043410211021
 7 -4.55697076897690  0.26404580228023  0.68330736283628
 6 -3.87578484408441 -0.93564327112711  0.75777633303330
 6 -2.56624004260426 -0.69295105430543  1.13406546884688
 6 -2.38315828162816  0.79557970677068  1.40999316181618
 6 -3.70837710061006  1.31458154335434  1.06191096579658
 6 -2.33909019471947  1.09790158605861  2.97388195099510
 6 -1.52643139153915 -1.07195975937594 -0.08257693139314
 6 -0.16932505080508 -1.04819652625263  0.51076014951495
 6  0.79426050525052 -1.37820505740574 -0.55961413521352
 8  0.70689075717572 -1.01805441794179 -1.69563055325533
 8  1.91041132773277 -2.07332763136314 -0.20405532803280
 7 -6.63085482768277  2.50935130513051  0.50777452535253
 6 -5.37553811471147  3.25419406260626  0.79851614781478
 6 -5.71220543574357  4.72832251705170  0.70925579417942
 6 -6.87769848324833  4.88286437693769  0.25264184748475
 6 -7.53409511341134  3.58181699009901  0.19236406780678
 6 -4.62523744404440  5.73414084458446  0.99676734473447
 6 -7.67593915521552  6.16271319141914  0.13142266596660
 8 -7.18550246644665  7.30447206380638  0.13111096789679
 7 -8.74425797929793  0.70795165436544 -0.34268691779178
 6 -9.37798147054705  1.90766550185019 -0.45266631893189
 6 -10.67896452675268  1.56499637073707 -0.91343712491249
 6 -10.92063642114211  0.24834573897390 -1.08020887638764
 6 -9.67847951125112 -0.30503866706671 -0.75693777047705
 6 -11.57721449674967  2.71709790289029 -1.19106375717572
 6 -12.15866898739874 -0.44003756605661 -1.34994312801280
 6 -12.18213507560756 -0.69715188038804 -2.95884867956796
 7 -7.06853333623362 -1.49407196849685 -0.07245989048905
 6 -8.23021568316832 -2.23419341604160 -0.47447064506451
 6 -7.64074165926593 -3.60615793819382 -0.49053006310631
 6 -6.40677629882988 -3.60544970587059 -0.03424168476848
 6 -6.01011730043004 -2.36424523902390  0.15927211151115
 6 -8.52969149264927 -4.87161453925393 -0.85789860576058
 6 -5.13171937643764 -4.49387518561856  0.16129415511551
 8 -4.72409415811581 -5.67357789608961  0.01576208280828
 6 -3.93506723212321 -3.54176473567357  0.59143379057906
 6 -3.58546205710571 -3.88081425692569  1.97649736273627
 8 -4.37237247734774 -4.16988372317232  2.91975064486449
 8 -2.03728540344034 -3.93234954025403  1.90768070727073
 6 -1.46472499459946 -4.14004909500950  2.99315374057406
 6  3.09988188098810 -2.39650482738274 -1.05305654975498
 6  4.25507927532753 -1.33336033713371 -1.20934646694669
 6  5.00027078247825 -1.10597746914691 -2.13766996859686
 6  5.16699068286829 -1.73234636933693 -3.45637261946195
 6  6.12590641524152  0.09296164326433 -1.90219677817782
 6  7.27633632763276 -0.55042082418242 -0.96156289358936
 6  8.25301786208621  0.55426106070607 -0.67130561106111
 6  9.60861395079508 -0.21724864516452  0.00817251155116
 6  9.44027154345434 -0.87460627532753  1.36331069986999
 6  10.76936926692669  0.89256411061106  0.08109294769477
 6  11.99991526202620  0.26908821602160  0.48257656885689
 6  13.22675421802180  1.13581085578558  0.38877177557756
 6  14.71534786998700  0.50992427052705  0.46897155925593
 6  14.81962695079508  0.03864158365837  2.11443136713671
 6  15.68850847924793  1.50349525152515  0.02120532583258
 6  17.10171965006501  0.80630585498550 -0.07058393229323
 6  18.24275382278228  1.83708089928993 -0.36139628642864
 6  19.76312851395140  1.04320281508151 -0.53825390909091
 6  20.06767656895690  0.36357178747875 -1.85739153035304
 6  21.14727189608961  2.00156157415742 -0.33792888878888
 1 -3.35044568286829  3.63348459945995  1.15712511421142
 1 -9.45260924342434  4.19246833193319 -1.07866150005001
 1 -9.87062955455546 -2.31675207450745 -1.32320514641464
 1 -2.24167668446845 -1.47098471627163  2.06560660896090
 1 -1.55377471607161  1.24489496569657  0.86399285268527
 1 -1.01801318501850  0.66601491589159  3.34371508260826
 1 -2.28979715361536  2.23774235063506  3.32236835463546
 1 -3.07910024252425  0.88811669696970  3.51079694879488
 1 -1.91264028432843 -2.17354862786279 -0.53279106590659
 1 -1.85325049404941 -0.54946641954195 -1.00006979777978
 1  0.20181818011801 -0.09807124042404  1.12725859105911
 1 -0.03114683448345 -1.83641997579758  1.24196442854286
 1 -3.79015354575458  6.15204303220322  0.18839379707971
 1 -5.32198247884789  6.71409408530853  1.34055096119612
 1 -4.25334636283628  5.34982394339434  2.06191396369637
 1 -8.92808582268227  5.77527263646365 -0.03818019381938
 1 -12.27617717131713 -1.41966283378338 -0.80669509670967
 1 -13.09881609660966  0.09277567736774 -1.22211984838484
 1 -12.96440426352635 -1.12867498289829 -3.32097921502150
 1 -12.33042000580058  0.15721314281428 -3.60156232573257
 1 -11.15556238063806 -1.21571488848885 -3.32231883928393
 1 -8.96893607690769 -4.65751230683068 -1.95099732773277
 1 -7.93132834743474 -5.88182819541954 -0.78175782768277
 1 -9.64101138113811 -5.11011297249725 -0.03647903840384
 1 -3.17924750615062 -3.32575630053005 -0.44736304310431
 1  3.57253886928693 -3.23480075387539 -0.75445116221622
 1  2.62174646344634 -2.59554546954696 -2.00717095239524
 1  4.19267659535954 -0.70113286168617 -0.09556595499550
 1  4.27538059505951 -1.69480295279528 -3.93318343334333
 1  5.70732431083108 -1.28696737213721 -4.08617984188419
 1  5.29001282868287 -2.58125073937394 -3.31015519931993
 1  6.37331775367537  0.31358669606961 -2.90445306250625
 1  5.74303941334133  1.07238278607861 -1.16316057945795
 1  6.86762794169417 -1.00492868996900  0.01679340094009
 1  7.55100049844984 -1.53072186248625 -1.83146262216222
 1  8.66291842324232  1.19991058585859 -1.51188397369737
 1  8.08231672977298  1.63272846104610  0.20729643804380
 1  9.85987843494349 -1.06939438313831 -0.70703786138614
 1  8.33705594989499 -1.55128394409441  1.70999936073607
 1  9.93386945634563 -1.79014289548955  1.63701559295930
 1  9.41276448804881  0.19948872647265  2.08492979807981
 1  10.88153179097910  1.16498925882588 -0.80412758435844
 1  10.23614336093609  1.74459333493349  0.85174905520552
 1  11.97521506370637 -0.01293373287329  1.66474015731573
 1  12.19878203220322 -0.62559077967797 -0.13575657315732
 1  13.42841771177118  1.69212875787579 -0.57433633823382
 1  13.16883892869287  1.80466471777178  1.14539032843284
 1  14.70550197599760 -0.53501101710171 -0.24870306150615
 1  14.36304620452045  0.94585498099810  2.75689846284628
 1  14.22252952645264 -0.57108478037804  2.39891738983898
 1  15.80270730383038 -0.27160074317432  2.15699217691769
 1  15.54494562946295  1.79179917331733 -1.11127110181018
 1  15.87111114371437  2.47596713221322  0.79646796999700
 1  17.58959027412741  0.47860103070307  0.91850203690369
 1  17.23657118131813  0.26406457565757 -0.92259363676368
 1  17.88315332243225  2.53596014381438 -1.07845083338334
 1  18.31566156225623  2.73949785668567  0.71924859535954
 1  19.53196575777578  0.20317316351635  0.33422677347735
 1  20.01178949694969  1.05243029262926 -3.16732885808581
 1  20.70486477647765 -0.06697849964997 -1.92861699509951
 1  19.16156888388839 -0.02038975737574 -2.44013208790879
 1  21.29287606620662  2.29101868096810  0.77838859245925
 1  22.11258899919992  1.28870545324532 -0.49962267726773
 1  21.27068372127212  2.57327481468147 -1.22264706100610
 1 -0.47085271037104 -4.02527527692769  2.51007935593559
 1 -1.98605828682868 -5.21740901460146  3.12585322192219
 1 -2.00313432673267 -3.72807128422842  3.71921607480748
 8 -11.51894026832683  3.90425522472247 -0.80850266396640
 1 -12.77104761626163  2.15434667476748 -1.99974057905791

