%nproc=4
%Mem=4GB
# td=(NStates=1) iop(3/107=0140000000,3/108=0140000000) iop(3/107=0140000000,3/108=0140000000) CAM-B3LYP/6-31G(d,p) 

TD

0 1
12 -5.63690519711971  1.20031490579058  0.27401600680068
 6 -5.05529591679168 -2.20437890119012 -0.35783265006501
 6 -3.37225601470147  1.09084936973697  2.83572894619462
 6 -6.08409720542054  4.52213547774778  0.70445065386539
 6 -7.92882864996500  1.03450430113011 -2.35866353985399
 7 -4.38312256555656 -0.34192238403840  1.13382472127213
 6 -4.40948447594760 -1.65524922652265  0.70289263886389
 6 -3.32128525302530 -2.39687299009901  1.44307867156716
 6 -2.97323049404940 -1.41658454935494  2.68085464156416
 6 -3.68495592299230 -0.10072269997000  2.26653123832383
 6 -3.59973301270127 -1.82126556795680  4.00290298969897
 6 -2.03675886908691 -2.76470387968797  0.59945525102510
 6 -0.96498814231423 -3.50650823142314  1.46882047004700
 6  0.22695779627963 -3.86703054375438  0.57804599929993
 8  0.48114817911791 -3.31252856645665 -0.47826406060606
 8  1.01682852855286 -4.82811242854285  1.17925253255326
 7 -4.87114793109311  2.56500587748775  1.47754798649865
 6 -3.91603369316932  2.36542396409641  2.46891749504950
 6 -3.63489299299930  3.59242774497450  3.11031158735874
 6 -4.43868442114211  4.61165269356936  2.54889416071607
 6 -5.21080718491849  3.95153324852485  1.57448354065407
 6 -2.53174853795380  3.79223659945995  4.26047023642364
 6 -4.44410094069407  5.90563798429843  2.93638314311431
 8 -3.88630867886789  6.50886877487749  3.86150004990499
 7 -6.79069286918692  2.58169806560656 -0.71775343164316
 6 -6.84721743654365  3.99447906510651 -0.40213190189019
 6 -7.74539972637264  4.59771649644965 -1.33405751525153
 6 -8.24421387468747  3.67205413531353 -2.19853879827983
 6 -7.62762165266527  2.40364637343734 -1.80514646114611
 6 -8.04638762966297  5.99840975037504 -1.27751726052605
 6 -9.11885624892489  3.89975037323732 -3.35209984278428
 6 -8.53896535023502  4.31350949714971 -4.58223462746275
 7 -6.27851627062706 -0.16012102980298 -1.09862495449545
 6 -7.31223075267527 -0.07105317391739 -2.01759597029703
 6 -7.51351885908591 -1.33847555115512 -2.59575209780978
 6 -6.77698724752475 -2.22680225202520 -2.00978714441444
 6 -5.99724814021402 -1.48997256235624 -1.05303143354335
 6 -8.50436589438944 -1.61741186718672 -3.77312420862086
 6 -6.27745141224122 -3.56604218811881 -1.93319687478748
 8 -6.62810720622062 -4.59656735513551 -2.56885315041504
 6 -5.16240480258026 -3.66167422002200 -0.83407572737274
 6 -5.42275975337534 -4.71252669376938  0.23084675647565
 8 -5.99495526712671 -4.57893690179018  1.27739410281028
 8 -4.98933863206321 -5.90956215261526 -0.15096824142414
 6 -5.45906347054706 -7.02479433273327  0.63245507530753
 6  2.24498547174717 -5.13008412861286  0.52298625302530
 6  3.28325286028603 -4.07202736363636  0.82634053385339
 6  3.86172556275628 -3.25243811391139  0.03127676267627
 6  3.71179551845185 -3.22494743604360 -1.51998150265026
 6  5.05284170997100 -2.33545859345935  0.49918371717172
 6  6.41719659095910 -2.76016894209421 -0.13137166976698
 6  7.39163448704871 -1.73351270677068  0.45723141364136
 6  8.92099292059206 -1.91663649724972 -0.06942472497250
 6  9.44529091079108 -3.18775941634163  0.30116665896590
 6  9.90782136123612 -0.75892613001300  0.41931444694469
 6  11.16757405980598 -0.61475108200820 -0.28855762196220
 6  12.13300098869887  0.49054368186819  0.16621346894689
 6  13.41894435023502  0.62101697159716 -0.60864562776278
 6  14.26414471347135 -0.57669707230723 -0.47441159205921
 6  14.17245318491849  1.85655182678268 -0.23103235803580
 6  15.48011220162016  2.17413544174417 -0.94299929492949
 6  16.06975956035604  3.52731748454845 -0.54192480568057
 6  17.31839708880888  3.80188803040304 -1.25252918811881
 6  17.20226281598160  4.09115400710071 -2.86381860606061
 6  17.98744815091509  5.18132339763976 -0.60885034393439
 1 -2.89842556535654  1.04817909330933  3.74987545594559
 1 -6.19653763256326  5.59691507190719  0.71299029072907
 1 -8.55295570277028  1.02145244814482 -3.18438391719172
 1 -3.71914297909791 -3.38428374377438  1.76525458625863
 1 -2.10538766266627 -1.24318197979798  2.58518979507951
 1 -3.11589136823682 -2.86096925812581  4.27664120812081
 1 -3.34321511421142 -1.05719562396240  4.76358838863886
 1 -4.64119663136314 -1.93122220312031  4.16505045554555
 1 -2.13795910961096 -3.23886340364036 -0.27337796159616
 1 -1.52759059145915 -1.73274239053905  0.22070019161916
 1 -0.58261369486949 -2.72417371297130  2.20911513021302
 1 -1.48958367996800 -4.40106723792379  2.02575437343734
 1 -1.59119923372337  3.63687321172117  3.94978088778878
 1 -2.80197118721872  4.86138334433443  4.82795905360536
 1 -2.68604159915992  2.98321931943194  4.89098410441044
 1 -5.20740380428043  6.64695889028903  2.31201652305230
 1 -9.67972710621062  3.02789344644464 -3.38796204790479
 1 -9.74294509240924  4.74711855595559 -3.03345363606361
 1 -9.36010581038104  4.18235664966497 -5.33517872017202
 1 -8.06171568096810  5.41408115351535 -4.46103605860586
 1 -7.61621147014701  3.55663502230223 -4.80101002580258
 1 -8.14527211681168 -1.03826436933693 -4.60664166246625
 1 -8.39515049804981 -2.60464386948695 -4.02099473647365
 1 -9.55220530003000 -1.40702752615261 -3.38209511621162
 1 -4.20294765216522 -3.81332615921592 -1.32104539143914
 1  2.54205533853385 -6.06824476747675  0.93832978987899
 1  2.04951569496950 -5.33627060316032 -0.49879332893289
 1  3.43424554685469 -3.84280356215622  1.95005001260126
 1  2.60290527722772 -3.42779840094009 -1.80118265926593
 1  3.79831444474447 -2.22551611091109 -1.98083055355536
 1  4.31210338433843 -4.16157988718872 -1.99134806070607
 1  4.92647268816882 -1.36995341934193  0.09136101960196
 1  5.22751127842784 -2.43867549994999  1.58927380768077
 1  6.75259278597860 -3.79747293939394  0.03450133413341
 1  6.48120828122812 -2.61107871687169 -1.22666326182618
 1  7.34724365566557 -0.77506083118312  0.34143138863886
 1  7.54768687158716 -1.84045062816282  1.48262264756476
 1  8.92559666896690 -1.86139441464146 -1.28208154625463
 1  8.89579409810981 -4.03039181058106 -0.22224601700170
 1  10.52287162796280 -3.19778398049805 -0.07769788328833
 1  9.45622468386839 -3.25438653015301  1.51885232793279
 1  9.42992214281428  0.25414114031403  0.40202556635664
 1  10.14624472197220 -0.89799633353335  1.46894643464346
 1  11.63077821912191 -1.61070110201020 -0.25211958515852
 1  10.91998808550855 -0.60415332023202 -1.39724105770577
 1  11.61879291279128  1.58229265846585  0.25583602840284
 1  12.46885170847085  0.37941913331333  1.24132241244124
 1  13.15189198989899  0.60611504380438 -1.77591983068307
 1  14.83256259455946 -0.62659087178718  0.57987366736674
 1  13.68656422742274 -1.41094011031103 -0.81734805630563
 1  15.16025701410141 -0.62416561476148 -1.23451034353435
 1  13.50297849204921  2.83510812991299 -0.09208099579958
 1  14.23233993429343  1.73062335153515  0.97286450035003
 1  16.22462411821182  1.29631824452445 -0.56632312301230
 1  15.23399898329833  2.02701661446145 -2.00790216991699
 1  15.20692209680968  4.20889626762676 -0.62615461356136
 1  16.20737350745075  3.49459610101010  0.51872177257726
 1  17.88483216461646  3.07522901410141 -1.30016909650965
 1  16.36875759615961  4.79414594349435 -3.10497285708571
 1  18.00080600410041  4.53600311361136 -3.40973557865787
 1  16.65719591979198  3.22767383738374 -3.33221125572557
 1  18.31975802300230  5.05605682318232  0.41541320552055
 1  18.82815033733374  5.61175532773277 -1.16353326772677
 1  17.37048859975998  6.11910141324132 -0.59139320062006
 1 -5.16991229262926 -7.90458989208921  0.32381884418442
 1 -6.56459088938894 -6.96300338693869  0.78215172267227
 1 -5.04402257085709 -6.62472404800480  1.69838429502950
 8 -7.48977656925693  6.84986148694870 -0.55675345934593
 1 -8.66748504560456  6.17299294419442 -2.12646832963296

