%nproc=4
%Mem=4GB
# td=(NStates=1) iop(3/107=0140000000,3/108=0140000000) iop(3/107=0140000000,3/108=0140000000) CAM-B3LYP/6-31G(d,p) 

TD

0 1
12 -5.72524403100310  1.18848372267227  0.24217282248225
 6 -4.96638702590259 -2.12754121742174 -0.32287915471547
 6 -3.47253604270427  1.18456874167417  2.89853522682268
 6 -6.27939673537354  4.51466473067307  0.76823703250325
 6 -8.00129589668967  1.24063491419142 -2.43545121862186
 7 -4.36463071637164 -0.21264945674567  1.08153949274927
 6 -4.23690721822182 -1.50499420102010  0.68305065466547
 6 -3.21084420892089 -2.19445274807481  1.44901926562656
 6 -2.93030620162016 -1.38698158905891  2.67771432753275
 6 -3.56685411281128 -0.05300792849285  2.20034461966197
 6 -3.50039307870787 -1.80699414081408  4.08367106650665
 6 -1.91798699189919 -2.66006341564156  0.64689999549955
 6 -0.87828947244724 -3.42177975857586  1.46552014001400
 6  0.23999910041004 -3.92715655635564  0.57125532023202
 8  0.48089815411541 -3.50389770337034 -0.52396863106311
 8  1.12720956665667 -4.57857747504750  1.26091069836984
 7 -5.08301911821182  2.58902827972797  1.54367459915992
 6 -4.13919600940094  2.42544996669667  2.55117572087209
 6 -3.92107161086109  3.65761426362636  3.29368992519252
 6 -4.62273282598260  4.58728025632563  2.66950622192219
 6 -5.32173827802780  3.97984607980798  1.61040713301330
 6 -2.84011937503750  3.76560393619362  4.32436662606261
 6 -4.61407793839384  6.04113153365337  2.88473797859786
 8 -3.98819886788679  6.69681756975698  3.64666856675668
 7 -6.87307110701070  2.58221811761176 -0.70818247454745
 6 -7.01307402220222  3.88908852605261 -0.32354404310431
 6 -7.99674486088609  4.55490221502150 -1.26699080858086
 6 -8.48936839013901  3.57502443234323 -2.13770271467147
 6 -7.79404829532953  2.43041905070507 -1.75236118261826
 6 -8.46256924782478  5.95875578497850 -1.16792630143014
 6 -9.47949231253125  3.84623502170217 -3.25099973277328
 6 -8.81580303400340  4.14803294949495 -4.51280768476848
 7 -6.41773019201920 -0.05097011471147 -1.05662075407541
 6 -7.25447497709771 -0.01254732333233 -2.20315452615262
 6 -7.50060756795680 -1.30128183178318 -2.78141066366637
 6 -6.72174172297230 -2.13140271207121 -1.97630379607961
 6 -5.98459687508751 -1.40239380448045 -1.05958208860886
 6 -8.38935439323932 -1.63702382838284 -4.04632152835284
 6 -6.21290495759576 -3.50919650355035 -1.95108866396640
 8 -6.67230162566257 -4.54631232963296 -2.51503776887689
 6 -4.85964452655266 -3.54462251485148 -0.92614493429343
 6 -5.14310178757876 -4.58623406450645  0.06251992379238
 8 -5.68889466106611 -4.45970497859786  1.17495385878588
 8 -4.93036273447345 -5.79128032443244 -0.48776192079208
 6 -5.31343890809081 -6.83006485978598  0.50764259405941
 6  2.35025599879988 -5.05722684288429  0.67708166256626
 6  3.48529306430643 -4.15825598649865  0.92646054585459
 6  4.07952734293429 -3.20945381548155  0.12383601860186
 6  3.73214755365537 -3.09939488078808 -1.29756926142614
 6  5.16002242804280 -2.39525457305731  0.63203700250025
 6  6.52690756205621 -2.66256918211821  0.09342080948095
 6  7.69829515311531 -1.93310266576658  0.62624831533153
 6  9.07859868116812 -2.06558139173917 -0.07629541204120
 6  9.58557493919392 -3.44456509690969 -0.03098655635564
 6  9.95152573167317 -0.99881011841184  0.52421493699370
 6  11.40288759115912 -0.86390599749975 -0.20071883808381
 6  12.28625631423142  0.21249587708771  0.29289613721372
 6  13.63439589538954  0.38806367626763 -0.47272203540354
 6  14.51152945194520 -0.90886028862886 -0.34728887978798
 6  14.24590052965297  1.66866303790379 -0.11066032083208
 6  15.40226441684168  2.09684771297130 -0.95152014701470
 6  16.06209879427943  3.51181593439344 -0.58405901910191
 6  17.34703995309531  3.92125996759676 -1.47173110831083
 6  17.10343293299330  4.15630052175217 -3.01286351055106
 6  17.98117752385238  5.17823308860886 -0.91839129802980
 1 -2.88013373617362  1.02125640104010  3.79249971837184
 1 -6.52258023682368  5.66986236663666  1.01077006870687
 1 -8.62682308950895  1.02177248014802 -3.34641011981198
 1 -3.70460152495250 -3.14972028742874  1.66977503830383
 1 -2.13995111901190 -1.45967362896290  2.99786106220622
 1 -3.17661744084408 -2.61587474867487  4.36522006600660
 1 -3.56303709640964 -1.00044994939494  4.71171320112011
 1 -4.57313982568257 -2.14732381328133  3.98204215471547
 1 -2.25889120282028 -3.39414893219322 -0.21122174597460
 1 -1.43842167456746 -1.80629974627463  0.33133125472547
 1 -0.58488392189219 -2.73164446004600  2.32172639133913
 1 -1.15397011861186 -4.25823295449545  1.99349114711471
 1 -1.83832394619462  3.51165068946895  3.77631354105411
 1 -2.60587157725773  4.68287549354935  4.71812807050705
 1 -3.01132412741274  2.95105610311031  5.18809381538154
 1 -5.60665372927293  6.71700589498950  2.48178349974997
 1 -10.11951108460846  2.93424408150815 -3.26970022172217
 1 -10.16998779667967  4.50306415051505 -3.01639192989299
 1 -9.60442024182418  4.44005241924193 -5.37279248154815
 1 -8.09428893829383  4.92679242464247 -4.47845780078008
 1 -8.15244509350935  3.33559291809181 -4.69175910071007
 1 -8.00570816041604 -1.00359090199020 -4.91063206150615
 1 -8.44423540654065 -2.72275568066807 -4.08436107310731
 1 -9.55838591809181 -1.32607943134313 -3.64084099079908
 1 -3.99889724712471 -3.77895272187219 -1.71574486138614
 1  2.35317645064506 -6.09996793979398  1.01277723462346
 1  2.19000974437444 -4.88962593869387 -0.47258070767077
 1  4.02337445974598 -4.28097737953795  1.81616662426243
 1  2.58025301200120 -3.47048266936694 -1.51341388238824
 1  3.69555416871687 -2.28914247354735 -1.84256672717272
 1  4.48596077007701 -3.93226695589559 -1.83820274617462
 1  4.90326036693669 -1.33306973097310  0.45079696319632
 1  5.23074160146015 -2.41455308770877  1.86157103740374
 1  6.82352987968797 -3.85054824692469  0.26812469646965
 1  6.36358651905190 -2.48822643164316 -0.91068166366637
 1  7.48553748504850 -0.99220254535454  0.54678192369237
 1  7.96568867176718 -2.16084266736674  1.75925031033103
 1  8.80265437473747 -1.64975325052505 -1.12494583268327
 1  8.96162068076808 -4.02380115151515 -0.92503629602960
 1  10.59545888668867 -3.42809701180118 -0.52431254475448
 1  9.70136919831983 -4.08269936143614  0.82485292799280
 1  9.50056920752075 -0.04481875567557  0.65710107390739
 1  10.23790388788879 -1.40146668056806  1.50714025402540
 1  11.91130627192719 -1.84086411831183 -0.18345271847185
 1  11.38052413911391 -0.53093599849985 -1.26109744334434
 1  11.70282131563156  1.30085451465147  0.41418186298630
 1  12.58886370967097  0.07135832723272  1.35746402660266
 1  13.36712351305130  0.46788122042204 -1.54827706640664
 1  14.83419275757576 -0.80008822152215  0.78877455745575
 1  14.00074564556456 -1.81903091939194 -0.64282060356036
 1  15.49276026442644 -0.94924812301230 -0.93759065156516
 1  13.63289148334833  2.62226684578458 -0.10593238093809
 1  14.56951365166517  1.56235652485249  0.82650986488649
 1  16.29155081088109  1.29948856155616 -0.83206969766977
 1  15.09474505790579  2.30220413321332 -2.13405478517852
 1  15.28593999859986  4.35791116911691 -0.50049204730473
 1  16.36537930803080  3.51376801820182  0.45548544894489
 1  18.12735641704170  3.08117960916092 -1.52805188478848
 1  16.42922364276427  5.15679220812081 -3.20318267806781
 1  18.10241616511651  4.25833534683468 -3.56257086218622
 1  16.58782898309831  3.25538660866087 -3.42186022062206
 1  17.97758380558056  5.05023624112411  0.28249991419142
 1  19.05311283358336  5.12430658285829 -1.35620253465347
 1  17.41657320822082  6.00443994709471 -1.28420248154815
 1 -4.96613191459146 -7.68458789188919 -0.14656819451945
 1 -6.38573300360036 -6.84222130873087  0.67178068556856
 1 -4.50560872947295 -6.94222579817982  1.36100055665567
 8 -7.90780837243724  6.74123062386239 -0.47506529052905
 1 -9.29455775287529  6.29378502340234 -1.83839952275228

