%nproc=4
%Mem=4GB
# td=(NStates=1) iop(3/107=0140000000,3/108=0140000000) iop(3/107=0140000000,3/108=0140000000) CAM-B3LYP/6-31G(d,p) 

TD

0 1
12 -5.66390789738974  1.26084095839584  0.13716232143214
 6 -5.02337272447245 -2.22612107540754 -0.39531639843984
 6 -3.46181497059706  1.10650093489349  2.69762513581358
 6 -6.15864466016602  4.44399766396640  0.68950915971597
 6 -8.13402917001700  1.14968581928193 -2.30093776727673
 7 -4.39045329862986 -0.25511370317032  0.99335067386739
 6 -4.29642316981698 -1.62467616921692  0.70811316091609
 6 -3.22854597909791 -2.23867717051705  1.42414677837784
 6 -2.90167333833383 -1.38613150405040  2.56352290839084
 6 -3.67942536993699 -0.05359798749875  2.13139772497250
 6 -3.51550458985899 -1.78534197559756  3.97185988538854
 6 -1.95788098129813 -2.55204261356136  0.67466277177718
 6 -0.99012065556556 -3.60685826642664  1.40332392039204
 6  0.22543764426443 -3.89839368006801  0.58138633333333
 8  0.38312837713771 -3.41457877147715 -0.53542977717772
 8  1.15034187988799 -4.63735335263526  1.30537514481448
 7 -4.80582139843984  2.61643102000200  1.45622585428543
 6 -3.92329441924192  2.34910233193319  2.40523112641264
 6 -3.67586709040904  3.52016051825183  3.15939649584958
 6 -4.50219077177718  4.61422295059506  2.54703397469747
 6 -5.25005110931093  3.93177127232723  1.46314240654065
 6 -2.72954831793179  3.86999437523752  4.29295348474847
 6 -4.55464199479948  5.94895231573157  2.90974047884789
 8 -3.91541158915892  6.44794268226823  3.83091699159916
 7 -7.07758155805581  2.51270116591659 -0.60707236353635
 6 -6.99267198199820  3.82768238543854 -0.28538022672267
 6 -7.93274846124612  4.64632135693569 -1.11523563306331
 6 -8.53937339063906  3.63320024992499 -1.97548649304930
 6 -7.90364925542554  2.33107911671167 -1.65311125762576
 6 -8.21736472737274  6.04602451185119 -1.27565707450745
 6 -9.41488585188519  3.90634103230323 -3.18374300710071
 6 -8.73195464916492  4.22683082928293 -4.41842824682468
 7 -6.40224864386439 -0.18848386608661 -1.14762985498550
 6 -7.40295982558256 -0.06900296889689 -2.07146135683568
 6 -7.71903941114111 -1.43135483908391 -2.73216573917392
 6 -6.82277182598260 -2.18038761056106 -2.11759792549255
 6 -6.06452486788679 -1.47587115221522 -1.15254138453845
 6 -8.62305776357636 -1.57675780178018 -3.89231612781278
 6 -6.20184385148515 -3.64651023492349 -2.03257681278128
 8 -6.52173656915692 -4.67373507190719 -2.63458972407241
 6 -5.11000956305631 -3.66246429902990 -0.84830715051505
 6 -5.44527200460046 -4.71176661776178  0.19224289608961
 8 -5.89750552215222 -4.45210421852185  1.24875123852385
 8 -5.19027872607261 -5.88634983138314 -0.23764690929093
 6 -5.38339590379038 -6.93067492079208  0.84046587638764
 6  2.37123809700970 -4.94645576577658  0.62315627002700
 6  3.43906844184418 -3.97287744864486  0.90224812461246
 6  4.10185957615762 -3.25155802590259  0.06367000200020
 6  3.89212355125513 -3.23355829712971 -1.47848735323532
 6  5.10417684348435 -2.31317636523652  0.48631243004300
 6  6.61946681798180 -2.63711663686369 -0.08811734433443
 6  7.53196852045205 -1.67329668516852  0.51973766426643
 6  9.02641346264626 -1.92534736833683 -0.03232101460146
 6  9.59630601230123 -3.27729837023702  0.24133067536754
 6  9.95817639673967 -0.69804004140414  0.37093960946095
 6  11.36551385378538 -0.75257486438644 -0.35432419861986
 6  12.24250193879388  0.41434606210621  0.10658750635064
 6  13.60233268906891  0.41505637553755 -0.50082484568457
 6  14.52198049704971 -0.76439584218422 -0.19232338323832
 6  14.22540848044804  1.76816298789879 -0.16084533933393
 6  15.53788797919792  2.09984801300130 -1.05852084708471
 6  16.16995958035804  3.40677543034303 -0.63633424662466
 6  17.41635688478848  3.85178301990199 -1.29911384658466
 6  17.41239382908291  4.07687257895790 -2.80752297649765
 6  18.04493389948995  5.10198546384638 -0.56770622952295
 1 -2.88123384618462  1.06402067746775  3.78538900730073
 1 -6.30446842564256  5.52913829422942  0.91760075177518
 1 -8.68056846404640  1.13069337223722 -3.17702318111811
 1 -3.51495256005601 -3.38196351175117  1.90661872267227
 1 -1.80232735663566 -1.00151781338134  2.57878915501550
 1 -3.18682846194619 -2.88888204940494  4.12397594159416
 1 -3.44549534223422 -1.22198210261026  4.71632366216622
 1 -4.66888940064006 -1.84089317021702  3.74756870737074
 1 -2.25312062576258 -3.23584310161016 -0.21550217401740
 1 -1.32102993539354 -1.63131224752475  0.45552367396740
 1 -0.60632606610661 -2.94114541014101  2.30228444714471
 1 -1.37501222282228 -4.63975110631063  1.70929272727273
 1 -1.52943305710571  3.62206173057306  3.90920683038304
 1 -2.75782677277728  5.05689289528953  4.68570482818282
 1 -2.81161415641564  3.30976197369737  5.08975398139814
 1 -5.31210427432743  6.33929812421242  2.04793011441144
 1 -10.11513064656466  3.12247290439044 -3.27295054675467
 1 -10.06339713761376  4.70699454355436 -2.88409870057006
 1 -9.29578937873787  4.49565797979798 -5.26006120842084
 1 -8.10322983238324  5.07997774317432 -4.13763371837184
 1 -8.10624047304730  3.30450980978098 -4.73433335813581
 1 -8.32446003560356 -1.00883142604260 -4.84223522182218
 1 -8.47868885188519 -2.57942134723472 -4.29253189018902
 1 -9.75975605510551 -1.41601842524253 -3.56152305900590
 1 -4.24519187658766 -3.71264609120912 -1.69523281018102
 1  2.80664179717972 -5.76045398839884  1.14893084998500
 1  2.00104084748475 -5.19088606470647 -0.34304775437544
 1  3.85569769206921 -4.07521680348035  2.00214522212221
 1  2.96911189788979 -3.51763738483848 -1.88693123412341
 1  3.83909852315232 -2.13592715201520 -1.69269173967397
 1  4.63979615361536 -3.84097782698270 -1.82382130803080
 1  4.93493353425342 -1.41594801880188 -0.01162927942794
 1  5.22882140944094 -2.29129076147615  1.51512639293929
 1  6.70269779647965 -3.72235542764276  0.11208909290929
 1  6.68146830723072 -2.50447805680568 -1.26854745024502
 1  7.08795772707271 -0.75205853095310  0.32741998749875
 1  7.87226932983298 -1.60588717181718  1.71838622392239
 1  9.00312442174217 -1.87095537073707 -1.18561189928993
 1  9.07238175687569 -4.15380415181518 -0.35387918031803
 1  10.63389273007301 -3.08792299439944 -0.15279539303930
 1  9.55573463486349 -3.63105419691969  1.40124056675668
 1  9.47330648124812  0.15434116031603  0.11227659145915
 1  10.09456955445545 -0.73986051995199  1.41460100010001
 1  11.92238738003800 -1.70950098199820  0.04747037383738
 1  11.42568865556556 -0.84582748764876 -1.55693702730273
 1  11.49833086658666  1.35879030823082 -0.09196875207521
 1  12.45267009030903  0.54555574697470  1.05554383458346
 1  13.60854765546555  0.56393082538254 -1.65965820452045
 1  14.35178451675167 -1.02752096479648  0.93365904590459
 1  14.26227179817982 -1.72109112541254 -0.61005732723272
 1  15.61349233763376 -0.33510670887089 -0.36910380288029
 1  13.73291148534853  2.61699631873187 -0.22029381708171
 1  14.56377307760776  1.70525081428143  0.95044225812581
 1  16.22076373217322  1.16836544924492 -0.81068755945595
 1  15.27458304170417  2.11416532933293 -2.05522690239024
 1  15.44531593619362  4.28784416241624 -0.73086508460846
 1  16.11850462056206  3.52002864426443  0.62052195259526
 1  18.34964864626463  3.06500799199920 -1.23463254285429
 1  16.53336405680568  4.80934746364637 -3.22524488428843
 1  18.45483140664066  4.42180169346935 -3.45171977707771
 1  17.51098129832983  2.95664673467347 -3.23528156275628
 1  18.07822386958696  4.83112432993299  0.52010367456746
 1  18.95959348164817  5.33579773197320 -1.01570848524852
 1  17.39454100500050  5.98876837993799 -0.82968703000300
 1 -5.23771907330733 -7.91743117621762  0.39504596689669
 1 -6.51575600590059 -6.86837392399240  1.18922242974297
 1 -4.59841801040104 -6.66715829142914  1.65257971457146
 8 -7.69361695329533  6.89018551935194 -0.51537932193219
 1 -9.23523182028203  6.22494813971397 -1.69871555435544

