%nproc=4
%Mem=2GB
# td=(NStates=1) iop(3/107=0140000000,3/108=0140000000) iop(3/107=0140000000,3/108=0140000000) CAM-B3LYP/6-31G(d,p) 

TD

0 1
12 -6.74240681278128  0.52392153625363  0.10719833933393
 6 -4.44033113961396 -2.03472189398940  0.46318659565957
 6 -4.22843465886589  2.79455108820882  0.80714359595960
 6 -9.14108681338134  3.31310533463346 -0.19178868056806
 6 -9.37650574817482 -1.72935596519652 -0.48229828852885
 7 -4.79391446334633  0.37217661536154  0.63988302040204
 6 -4.02472973857386 -0.85629533633363  0.65548610401040
 6 -2.52076549514951 -0.58020978017802  0.96146820912091
 6 -2.22798276407641  1.04185433423342  1.07759992249225
 6 -3.96139240214021  1.37753783898390  0.88468324302430
 6 -1.66052233793379  1.57934973087309  2.54781934473447
 6 -1.62011075947595 -1.19927249064907 -0.30536921062106
 6 -0.16802492079208 -1.35567727432743  0.25135420892089
 6  0.96386746594659 -1.26310354725473 -0.85489366316632
 8  0.63279334743474 -0.81007361986199 -1.99172016221622
 8  1.92604289088909 -1.92021231983198 -0.51775669816982
 7 -6.73023476567657  2.57734810481048  0.21029477737774
 6 -5.62832339323932  3.34763340654065  0.57988428462846
 6 -5.89373358855886  4.82077176197620  0.49826469506951
 6 -7.24327504090409  4.92431852235224  0.15937252055206
 6 -7.78668037193719  3.53666247464747  0.06979181058106
 6 -4.85269018931893  5.88437586808681  0.79087675567557
 6 -8.14700626192619  6.16765368546855 -0.01435191149115
 8 -7.58178209440944  7.18836045264526  0.14984284108411
 7 -8.85742929642964  0.88705956515652 -0.13490613971397
 6 -9.66305997839784  1.85820055535554 -0.34364541684168
 6 -11.00974760506051  1.53384325542554 -0.67142292349235
 6 -11.04778913641364  0.18047895229523 -0.83697455295530
 6 -9.82851451475147 -0.37099526272627 -0.50582265896590
 6 -12.07644441974197  2.50451664476448 -0.90106475727573
 6 -12.29765288578858 -0.57900146244624 -1.15261339503950
 6 -12.40169703180318 -1.11858402360236 -2.60787358205821
 7 -6.98919540244024 -1.38869143044304 -0.04848749324933
 6 -8.07796045764576 -2.32175217191719 -0.25462866086609
 6 -7.68918650375038 -3.77214453685369 -0.22334334443444
 6 -6.30959658085809 -3.73579274017402  0.03356509590959
 6 -5.91169745844584 -2.26213502800280  0.18516470077008
 6 -8.42869139263926 -4.90275765356536 -0.65575839173917
 6 -5.03863006750675 -4.61914771287129  0.15653367906791
 8 -4.90658240694069 -5.72232277057706  0.14096460306031
 6 -3.89512323772377 -3.44966552575258  0.42419706690669
 6 -3.32957646854685 -3.61407758325833  1.88171788478848
 8 -3.84516975707571 -3.74764149894989  2.94212288208821
 8 -1.81810348524852 -3.65537184248425  1.85486542574257
 6 -1.16843536563656 -4.05922101220122  3.02925735093509
 6  3.02913480628063 -2.02023720062006 -1.46614785888589
 6  4.26653042044204 -1.23772077317732 -1.03626915921592
 6  5.13211396679668 -0.56478334973497 -1.94131033263326
 6  5.06211019481948 -0.78111124582458 -3.37183416561656
 6  6.17991181578158  0.31617396449645 -1.35296185468547
 6  7.45819451345135 -0.72968875097510 -1.16527326462646
 6  8.61482404270427  0.43809944454445 -0.66476495699570
 6  9.96632972237224 -0.47763468376838 -0.15897420312031
 6  9.70787830413041 -1.52144095879588  0.99216358515852
 6  10.98842117211721  0.58356321052105  0.06213105150515
 6  12.32946821732173 -0.07221591439144  0.24741305250525
 6  13.40846238883888  0.91225850055005  0.60312321072107
 6  14.85512184738474  0.20223350145015  0.80167482958296
 6  14.98509349744974 -0.44541682218222  2.14884480848085
 6  16.00798042644265  1.20729563156316  0.73149635493549
 6  17.26009548764877  0.72026725112511  0.22846597269727
 6  18.49579912731273  1.69072626382638  0.14689454265427
 6  19.90081228232823  1.00677917271727 -0.42039212291229
 6  19.86046584788479  0.18088351865187 -1.73746953815382
 6  20.86616378527853  2.16843826182618 -0.61459655555556
 1 -3.42925356365637  3.44952620362036  1.06386578827883
 1 -9.89640362286229  4.15597468256826 -0.19430306420642
 1 -10.27785027662766 -2.10744114341434 -0.65944877077708
 1 -2.50130264706471 -0.98204582238224  2.07033708200820
 1 -1.70051939053905  1.61230170637064  0.03523997739774
 1 -0.34724610831083  1.16876519091909  2.92662337343734
 1 -1.65747392129213  2.47318589498950  2.83004912271227
 1 -2.65750808330833  1.22293017831783  3.58256412551255
 1 -2.31051007130713 -2.15550682368237 -0.75385317211721
 1 -1.90985615461546 -0.64253572647265 -0.98131792259226
 1 -0.07593959565957 -0.41907334063406  0.95634149934994
 1  0.05379165936594 -2.32355868966897  0.69989022112211
 1 -4.21354588498850  5.91765959385939  0.07857281498150
 1 -5.31885216581658  7.00151282718272  1.17306421252125
 1 -4.27174820302030  5.40429939093909  1.85751352365236
 1 -9.10402341644165  6.09182429162916 -0.06943331913191
 1 -12.58011756535654 -1.53868473597360 -0.59760418761876
 1 -12.94425064006401 -0.14375797599760 -0.67461509790979
 1 -13.09805762886289 -1.95030714611461 -2.73362047914791
 1 -12.54157112091209 -0.36093867236724 -3.35520769026903
 1 -11.44787161156116 -1.40053337033703 -3.05963257065707
 1 -9.11617080038004 -4.96004255985599 -1.47990021802180
 1 -8.18735394999500 -5.91452146474648 -1.04495414731473
 1 -8.71087836783679 -5.01524348554856  0.41112572207221
 1 -3.00719030043004 -3.61143486838684 -0.23223152995300
 1  3.17574919031903 -2.97485475927593 -1.46090180728073
 1  2.58733302210221 -1.81777769276928 -2.34375461076108
 1  4.51934926262626 -1.01058380678068 -0.05932233063306
 1  4.30414347134713 -0.45765923842384 -3.92699281428143
 1  5.93024660306031 -0.62286096149615 -3.81231245514551
 1  5.14375820322032 -1.86916953125313 -3.55053923772377
 1  6.32498292019202  1.07710304770477 -2.35522814001400
 1  5.95829093849385  0.74071961976198 -0.44974923832383
 1  7.41265244414442 -1.31512971007101 -0.28427670607061
 1  7.84859025742574 -1.08227701800180 -2.08251772767277
 1  8.94097622902290  1.23543413821382 -1.46087887318732
 1  8.06043454155416  1.13041823002300  0.01001671007101
 1  10.60180262736274 -1.26845428912891 -1.08194535213521
 1  8.86384862916292 -2.05532434813481  0.40339870067007
 1  10.74004007340734 -1.84116799799980  1.45119701110111
 1  8.85034824642464 -0.87688891129113  2.08122942804280
 1  11.08102173997400  1.32998575847585 -0.86213338493850
 1  10.81106085268527  1.16791566716672  0.84040792109211
 1  12.44482202440244 -0.62035447494749  0.77055073837384
 1  12.63964611861186 -0.53040126072607 -0.44537753525353
 1  13.40442531253125  1.46538608360836 -0.50280918551855
 1  13.26216826162616  1.62999725102510  1.39898568796880
 1  14.83334476027603 -0.57956547254725 -0.10451864306431
 1  14.96965686558656  0.18212860836084  3.12291506450645
 1  14.03790106360636 -0.95807347924792  2.53288078617862
 1  15.98414544764476 -1.01481506460646  2.14389086678668
 1  16.01968310321032  1.94122411581158  0.00053007830783
 1  16.21864589718972  1.98027756325632  1.71332965616562
 1  17.61745306040604 -0.08210503990399  1.04771495819582
 1  17.21173869806981  0.15263343254325 -0.48720009740974
 1  18.10045505260526  2.37303385118512 -0.64753774207421
 1  18.72712270837084  2.05145905280528  1.35061173167317
 1  19.92648520972097  0.09238208440844  0.48209155995600
 1  19.48496681468147  0.72743779337934 -2.70968309350935
 1  20.94614890489049 -0.14202600440044 -1.77476160956096
 1  19.31074380138014 -0.84960267866787 -1.57611568626863
 1  21.07051382998300  2.78535811491149  0.20558131173117
 1  21.93172091239124  1.74117069976998 -0.88908162316232
 1  20.66104275717572  2.89446693389339 -1.61034583088309
 1 -0.24207983308331 -4.34310706010601  2.83939228722872
 1 -1.82473215421542 -4.80695796949695  3.36863750035003
 1 -1.03351736503650 -3.36309478657866  3.68023217641764
 8 -11.85327370167017  3.68147294649465 -0.84817663136314
 1 -13.11069158065807  2.26016725682568 -1.20679128412841

