%nproc=4
%Mem=2GB
# td=(NStates=1) iop(3/107=0140000000,3/108=0140000000) iop(3/107=0140000000,3/108=0140000000) CAM-B3LYP/6-31G(d,p) 

TD

0 1
12 -6.72767533963396  0.67648679277928  0.11703932343234
 6 -4.49802690919092 -1.90126854865487  0.32246252325232
 6 -4.35069688508851  2.77033866696670  0.97068995059506
 6 -8.89188189288929  3.03067709180918 -0.21051055275528
 6 -9.34360245784579 -1.93567659725973 -0.62597265596560
 7 -4.75218028992899  0.45260465816582  0.59063809590959
 6 -3.95060232583258 -0.71042074887489  0.65467602300230
 6 -2.53303672227223 -0.45584734393439  1.05533759605961
 6 -2.45834580038004  1.16235638443844  1.23017518001800
 6 -3.96418268116812  1.55200528572857  0.94882965766577
 6 -2.21762804850485  1.46649844574457  2.88177274007401
 6 -1.60844959335934 -0.94480704410441 -0.13620229392939
 6 -0.24638275657566 -1.04640634723472  0.16999607310731
 6  0.82059313851385 -1.23681091799180 -0.84222239603960
 8  0.64632470057006 -1.05017763026303 -2.02382337253725
 8  1.84426471307131 -1.88830912951295 -0.32200712321232
 7 -6.61389313151315  2.51038140814081  0.22776652455245
 6 -5.52111267216722  3.27179582278228  0.71048734493449
 6 -5.78472268746875  4.81943162796280  0.61582645124512
 6 -7.09994070747075  4.87451354185419  0.31813839713971
 6 -7.61451315521552  3.39733854225423 -0.04752992159216
 6 -5.08511343164316  5.85329275977598  1.16577424542454
 6 -7.85278683998400  6.04422134223422  0.19491901560156
 8 -7.66865078127813  7.08236985358536  0.59886774357436
 7 -8.79729328282828  0.59877073627363 -0.25816846594659
 6 -9.46470014241424  1.70238497379738 -0.32054310661066
 6 -11.01569820012001  1.43140301140114 -0.67473325452545
 6 -11.07608196569657  0.11620252465247 -0.79231008650865
 6 -9.65020668396840 -0.42248041124112 -0.72611468816882
 6 -12.05656243154315  2.48263445654565 -0.93212786358636
 6 -12.08380150065006 -0.61379494179418 -1.21635976967697
 6 -12.07208407050705 -0.96269843504350 -2.70141293599360
 7 -7.06305278817882 -1.43727628892889 -0.06385903040304
 6 -8.11895455705571 -2.20434043074307 -0.33076627462746
 6 -7.52635022012201 -3.74371169356936 -0.43218422852285
 6 -6.10814643584358 -3.59391855275528 -0.23734199479948
 6 -5.93443973267327 -2.19620843534353  0.01747793209321
 6 -8.58510703420342 -4.69886726452645 -0.66726954285429
 6 -4.98200440494049 -4.35679147724773  0.25483350905090
 8 -4.85200694939494 -5.69422996129613  0.56322682928293
 6 -3.91186491189119 -3.33986454565457  0.50260490769077
 6 -3.52389590049005 -3.54118029352935  1.78406811981198
 8 -4.08116335643564 -3.94474120892089  2.81514018381838
 8 -2.10935261016102 -3.57094339963996  1.76198613781378
 6 -1.13987250935093 -3.93417850795080  2.87025145034503
 6  3.11345323812381 -2.17494267116712 -1.42516376047605
 6  4.20540430783078 -1.18968596969697 -1.17165269756976
 6  5.06759751515151 -1.00487735913591 -2.00691689328933
 6  5.33992797659766 -1.83184631933193 -3.39656663886389
 6  6.11301512611261 -0.04432208510851 -1.60516707520752
 6  7.37069576357636 -0.57336311841184 -1.13819055635564
 6  8.54081664196420  0.38347398199820 -0.80601908240824
 6  9.82637572697270 -0.13587050735074 -0.22612091779178
 6  9.50961847814781 -0.70447926262626  1.24311868066807
 6  10.92341467146715  0.87845269946995 -0.30996615821582
 6  12.25030030053005 -0.06248494129413  0.15733404460446
 6  13.60903244584458  0.92066934163416  0.29838273667367
 6  14.82442877807781  0.26750002810281  0.58816347844784
 6  14.86399138723872 -0.30657293779378  2.16781670567057
 6  15.93399302770277  1.44037893989399  0.25419862516252
 6  17.51037051515151  0.68320354475448  0.20707383348335
 6  18.47143669106911  1.69280647184718 -0.01448159495950
 6  19.96537873897390  0.96590508530853 -0.21313139683968
 6  19.87084688598860  0.18647407770777 -1.59725551675168
 6  21.00397756665667  2.00698211621162 -0.04799989588959
 1 -3.65979661796180  3.58953020402040  1.05524492619262
 1 -9.72977696019602  3.94071315641564  0.00395676177618
 1 -10.15403789538954 -2.54164456375637 -0.84787761366137
 1 -2.40873339013901 -1.01916953475348  1.96532658095810
 1 -1.97881722032203  1.48667914411441  0.34061051445145
 1 -1.37316870057006  0.72645095949595  3.13832454355436
 1 -2.11438961286129  2.63722229862986  2.81914803260326
 1 -3.26067840034003  1.15166305160516  3.10706657575758
 1 -1.93109212951295 -2.14473574657466 -0.59958774557456
 1 -1.93795896489649 -0.60714218711871 -1.09198898969897
 1  0.06326432473247 -0.29045047834784  0.76820268546855
 1  0.46182246244624 -1.72521885568557  0.75759599169917
 1 -4.00395492589259  5.77068489638964  1.08784374207421
 1 -5.54441472207221  6.85450812671267  0.82839974607461
 1 -5.16272730093009  5.78048700970097  2.30810858315832
 1 -8.91256427052705  5.98000310951095 -0.58036441224122
 1 -12.03129268286829 -1.57075794329433 -0.79069349654966
 1 -13.06516273127313 -0.18886248644864 -1.00695833223322
 1 -12.97913573667367 -1.93296541194119 -3.05511262836284
 1 -12.44887185098510 -0.05525810431043 -3.57539970947095
 1 -11.06894371877188 -1.69048236523652 -2.85539214661466
 1 -8.72893207650765 -4.77341389698970 -1.93855608360836
 1 -8.40001521612161 -5.68887890049005 -0.68822847474748
 1 -9.54898217821782 -4.50731269246925  0.01467607710771
 1 -3.36393597499750 -3.17779150405040 -0.48829713651365
 1  3.51258287368737 -3.25789306310631 -1.12694841194119
 1  2.36565085388539 -2.15728164316432 -2.47813804910491
 1  3.99033636133613 -0.81666441484148 -0.17231362976298
 1  4.86968002500250 -0.91481495399540 -4.26397651265126
 1  6.65076865526553 -1.99181785718572 -3.56331755565557
 1  4.88896272367237 -2.81787440174017 -3.48718290209021
 1  6.67693811571157  0.79849518691869 -2.28975159235924
 1  6.08209331873187  0.42193774157416 -0.71611587498750
 1  6.99741091999200 -1.22900109720972 -0.30257853625363
 1  7.87092249064906 -0.96772556285629 -1.85025450135014
 1  8.66683881528153  0.84110470527053 -1.68666145144514
 1  8.30376887498750  0.97933312151215 -0.15998028962896
 1  10.07792023912391 -1.40285772947295 -1.02298945654565
 1  8.49719196349635 -1.58777759345935  1.43991235203520
 1  10.49384545394539 -1.29249313051305  1.41024291569157
 1  9.14335754735474  0.03464224182418  2.06963826892689
 1  11.46373001080108  1.45518827872787 -1.31592876447645
 1  10.77511725832583  1.68653752935294  0.24984886518652
 1  12.28619616181618 -0.39557199669967  1.32012569586959
 1  12.87880003400340 -0.75852407300730 -0.54838783628363
 1  13.88836370637064  1.74076362136214 -0.69444834943494
 1  13.29059110391039  1.79410366166617  0.98922471187119
 1  15.03872529832983 -0.62529004500450 -0.18552674387439
 1  14.53549344924493  0.66005640114011  2.98720149314932
 1  14.25471274477448 -1.06277394929493  2.15556305440544
 1  15.89842687578758 -1.13859744284428  2.73191966966697
 1  15.95294642954295  2.07525751915191 -0.78802877757776
 1  15.86621065366537  2.24479401490149  1.08399672287229
 1  17.31706302140214 -0.15401223062306  0.71572175887589
 1  17.34804232843284  0.09941811101110 -0.73705508290829
 1  18.28377338443845  2.38906545434543 -0.91777476577658
 1  18.56874687078708  2.63440734763476  0.95017168766877
 1  20.03331589278928  0.16539938613861  0.82317566836684
 1  19.44192251025103  1.18610365996600 -2.54501662686269
 1  21.05428971897190 -0.36114791659166 -1.60639477287729
 1  18.81516424342434 -0.76321403980398 -1.56639471417142
 1  21.07521430003000  2.35154473357336  0.91102185578558
 1  21.99127686798680  1.53425000770077 -0.02317503250325
 1  20.93682033493349  2.62876036323632 -0.82345714201420
 1 -0.31126675177518 -4.89776252565257  2.24324267226723
 1 -2.02388206920692 -4.53822109580958  3.90458109470947
 1 -0.60366437973797 -2.77791626872687  3.52753690689069
 8 -11.69446782108211  3.60648544774477 -0.76755856955696
 1 -12.97920843234323  2.16308754885489 -1.51316192119212

