%nproc=4
%Mem=4GB
# td=(NStates=1) iop(3/107=0140000000,3/108=0140000000) iop(3/107=0140000000,3/108=0140000000) CAM-B3LYP/6-31G(d,p) 

TD

0 1
12 -5.60178168476848  1.18863373767377  0.21495010021002
 6 -4.98085847304730 -2.13090155345535 -0.41116798359836
 6 -3.41283007210721  1.11762204700470  2.73012838613861
 6 -6.31199999569957  4.51594485868587  0.74443465226523
 6 -7.90103587068707  1.20866171687169 -2.48330600410041
 7 -4.39488374167417 -0.36511470327033  1.06074741354135
 6 -4.22888641614161 -1.63270697229723  0.69549189878988
 6 -3.19646277077708 -2.45127843064306  1.39834419811981
 6 -2.87049022002200 -1.36812970387039  2.54389094519452
 6 -3.60336776417642 -0.12278490619062  2.09155374057406
 6 -3.40552359175918 -1.75134857625763  3.96588928832883
 6 -1.93017821102110 -2.73728113741374  0.70550585608561
 6 -0.82930457395740 -3.49412699329933  1.56573016101610
 6  0.26931203170317 -3.78388222892289  0.64942313701370
 8  0.49087915221522 -3.32781009460946 -0.47386362056206
 8  1.09922676837684 -4.64037365466547  1.25551015831583
 7 -4.90471128742874  2.60145952285229  1.45992622432243
 6 -4.00341243104310  2.39840726242624  2.39583018631863
 6 -3.80872037573757  3.67649615181518  3.21619217541754
 6 -4.57446799949995  4.59598112641264  2.60291956325633
 6 -5.31999810401040  3.90149824502450  1.53489958225823
 6 -2.76640200330033  3.75296267206721  4.44283847324732
 6 -4.83505003560356  5.91921934243424  3.03280278507851
 8 -4.14439448744874  6.54545243324332  3.83088698859886
 7 -6.77471127102710  2.62940283608361 -0.75652730903090
 6 -6.92098481328133  3.91577119431943 -0.29105079377938
 6 -7.97284247064706  4.58161488628863 -1.18951306080608
 6 -8.35934538783878  3.60113704360436 -2.15945488988899
 6 -7.57902679317932  2.43449945874587 -1.83966991349135
 6 -8.38067105800580  5.96793670307031 -1.13717322612261
 6 -9.37417178047805  3.77776817501750 -3.26733136593659
 6 -8.66888834253425  4.13644179037904 -4.55579198319832
 7 -6.33508192719272 -0.14829984768477 -1.12310740274027
 6 -7.34768429802980 -0.07556362496250 -2.16058026872687
 6 -7.58221572877288 -1.35962766636664 -2.71208373097310
 6 -6.63662321112111 -2.11495106690669 -2.05757192289229
 6 -5.94628304370437 -1.39067263236324 -1.13166929732973
 6 -8.58182364016402 -1.65097522352235 -3.78201509770977
 6 -6.21802546964696 -3.58569415331533 -1.92588614371437
 8 -6.66683107860786 -4.53376107450745 -2.58522478757876
 6 -5.10284884698470 -3.55205325792579 -0.92757507730773
 6 -5.33350082748275 -4.63674911601160  0.15301897369737
 8 -5.84198997059706 -4.40317932603260  1.14576093949395
 8 -5.09660935913591 -5.85866706310631 -0.30064320892089
 6 -5.33800136433643 -6.78576042934293  0.65079690949095
 6  2.36675764896490 -5.01965308550855  0.67616157055706
 6  3.43053758875888 -3.99532969386939  0.95383328312831
 6  3.98838822902290 -3.10496336643664  0.05829946494649
 6  3.56375071397140 -3.04333927522752 -1.38549805430543
 6  5.15532195799580 -2.22193724132413  0.58975277407741
 6  6.45909078037804 -2.54204712991299  0.03532499989999
 6  7.57781310491049 -1.70371972747275  0.68475416591659
 6  9.00830165146515 -2.02016685028503  0.10060227772777
 6  9.54956133783378 -3.40718135853585  0.45480202250225
 6  9.98412899199920 -0.89065930333033  0.35208772427243
 6  11.27792509490949 -0.80580018691869 -0.38032679887989
 6  12.17868555715572  0.28315294279428 -0.05272842524252
 6  13.51270372617262  0.33401827172717 -0.77733249644964
 6  14.49326762576258 -0.88017742034203 -0.49020317121712
 6  14.30341628122812  1.68598477007701 -0.28688794359436
 6  15.50417460786078  2.15395342354235 -1.04503949894990
 6  16.03312589698970  3.43955870867087 -0.58305891909191
 6  17.34945019411941  3.83756159775978 -1.23900783598360
 6  17.30484307400740  4.01051594329433 -2.80988321252125
 6  18.07553695979598  5.10910617591759 -0.69722918181818
 1 -2.69563528632863  1.23192746814682  3.49332980138014
 1 -6.64209218801880  5.49384476487649  0.91705069676968
 1 -8.59574998219822  1.49932023492349 -3.29940541934193
 1 -3.49195025982598 -3.54773008840884  1.81130919171917
 1 -1.79745686958696 -1.37556521812181  2.50392166826683
 1 -3.02131191029103 -2.57622078327833  4.48050159415942
 1 -3.20984177687769 -0.90826073047305  4.62725475527553
 1 -4.41011352305231 -1.97283636453645  3.91446539703970
 1 -2.24165947964796 -3.37570708800880 -0.10969159295930
 1 -1.55100293269327 -1.86399551585159  0.23389151075108
 1 -0.27140257375738 -3.02319361496150  2.33181740044004
 1 -1.21239596119612 -4.29439657085709  1.91062286028603
 1 -1.83904401820182  3.30001952635264  4.03903981368137
 1 -2.73233422352235  4.68724593059306  4.79703596129613
 1 -3.24031702670267  3.01188218571857  5.23105811181118
 1 -5.43629669356936  6.58457265166517  2.40563588498850
 1 -9.86900603410341  2.86654731183118 -3.32923617531753
 1 -9.71733253115312  4.71530537463746 -2.82405269596960
 1 -9.35008480828083  4.41489990399040 -5.45275047734773
 1 -7.87370688008801  5.09878962436244 -4.59873982898290
 1 -8.06679652865286  3.29096845564556 -4.76349627442744
 1 -8.38866645624563 -1.12724326722672 -4.70802180048005
 1 -8.23455443844384 -2.69228263336334 -3.96497913491349
 1 -9.49467954745475 -1.48239506290629 -3.65551245794579
 1 -4.18677603500350 -3.82618744534454 -1.64459774667467
 1  2.64260539353935 -5.89710765376538  1.00780673757376
 1  2.22063280668067 -5.36216319241924 -0.48045149474947
 1  3.50599272157216 -3.95526480828083  1.98955396299630
 1  2.44558954565457 -3.44208983008301 -1.14118665966597
 1  3.57679229252925 -2.06628018731873 -1.70519298979898
 1  4.21258343234323 -3.65030876007601 -2.01118004390439
 1  4.98634867576758 -1.12582900690069  0.14317620112011
 1  5.17281580888089 -2.23324495689569  1.74937981828183
 1  6.66032355905591 -3.59075226732673  0.24218210221022
 1  6.60289044944494 -2.37899550855086 -0.95746634213421
 1  7.38262719401940 -0.59106243134313  0.31631887738774
 1  7.72431453435344 -1.81280786388639  1.70236462176218
 1  8.87045115441544 -2.13894216941694 -0.89712305040504
 1  8.86732125082508 -4.19082785418542  0.26660286788679
 1  10.57937727852785 -3.53729793189319 -0.08483859735974
 1  9.52360142154216 -3.59650074157416  1.59529997269727
 1  9.57367651825183  0.04309003520352  0.19759512331233
 1  10.23105320282028 -0.60057659155916  1.55380492049205
 1  11.75287042834283 -1.86423645554556 -0.20096446964697
 1  11.19501558825883 -0.87202010691069 -1.44918625222522
 1  11.64301533503351  1.10746517571757 -0.53186274147415
 1  12.27697252055205  0.51420261166117  1.05133341354135
 1  13.34160096079608  0.36731116341634 -1.82052429112911
 1  14.83390272857286 -0.99603781648165  0.59539521952195
 1  13.95795136613661 -1.82407142344234 -0.65137145864586
 1  15.41284227262726 -0.66226942514251 -1.25120201270127
 1  13.55351354555456  2.68052267136714 -0.27982977067707
 1  14.41141784208421  1.48846913611361  0.85793300720072
 1  16.37995965176518  1.38310692339234 -1.22171866256626
 1  15.12455803920392  2.46778069086909 -2.05570695039504
 1  15.41117252185219  4.33120849884989 -0.78302030013001
 1  16.22779554965497  3.36645328672867  0.60095999639964
 1  18.03519720112011  3.19864135533553 -0.95086416601660
 1  16.51315203560356  4.70962749164917 -2.93680604040404
 1  18.26924284778478  4.42653216651665 -3.30714531963196
 1  16.97268746894689  3.04556562656266 -3.33926196079608
 1  18.01664771197120  5.24477569506951  0.41935359955996
 1  19.04816233853385  5.35910006220622 -1.03125003940394
 1  17.32255380628063  5.95520502360236 -0.94849891119112
 1 -5.14113941534153 -7.71880131323132  0.11854831713171
 1 -6.47153158345835 -6.65003208980898  0.75666917441744
 1 -4.81000916951695 -6.66264784038404  1.55235969256926
 8 -7.99262685428543  6.77679418021802 -0.34183196719672
 1 -9.15474377147715  6.25635128002800 -1.99940562336234

