%nproc=4
%Mem=4GB
# td=(NStates=1) iop(3/107=0140000000,3/108=0140000000) iop(3/107=0140000000,3/108=0140000000) CAM-B3LYP/6-31G(d,p) 

TD

0 1
12 -5.70072157875788  1.19613448774877  0.20751935713571
 6 -5.07204759195920 -2.21285974927493 -0.33661052785279
 6 -3.33875266436644  1.14857514231423  2.57860323362336
 6 -6.26967576327633  4.56260952515252  0.67120732953295
 6 -8.08577434453445  1.12972382308231 -2.22583025652565
 7 -4.39600385368537 -0.29181737353735  0.99920125892589
 6 -4.26009953745375 -1.61617531913191  0.65008735833583
 6 -3.21453457795780 -2.34296759955996  1.49019338303830
 6 -2.84785795679568 -1.36596948784878  2.55236179227923
 6 -3.48095552295230 -0.04750737843784  1.99228381358136
 6 -3.17788082748275 -1.72780622202220  3.89117181658166
 6 -2.02349754295430 -2.83647105640564  0.66499180468047
 6 -0.93435507900790 -3.72841042164216  1.34070765876588
 6  0.26539163966397 -3.90429427012701  0.50274846954695
 8  0.45965602990299 -3.48030534413441 -0.61720795499550
 8  1.04154099979998 -4.69869948724873  1.32654726202620
 7 -4.96394721102110  2.65799517641764  1.50766099779978
 6 -3.95363745354535  2.40213763546355  2.40733133643364
 6 -3.62853235693569  3.61958046024602  3.06805736193619
 6 -4.49011956465647  4.56038756705671  2.55849512081208
 6 -5.27075317951795  3.97445554075408  1.51739783208321
 6 -2.62035739883988  3.79642701850185  4.19088327772777
 6 -4.57351388198820  6.01496891739174  2.64568407320732
 8 -3.98769881788179  6.57336522452245  3.64375827572757
 7 -7.01243504340434  2.58189808560856 -0.65942759905991
 6 -7.04328704350435  4.01689130633063 -0.25414710341034
 6 -8.02451763816382  4.57111383618362 -1.13213732323232
 6 -8.60071952525253  3.70868779867987 -2.02604154855486
 6 -7.86345523602360  2.40437644644464 -1.70342628912891
 6 -8.36490948184819  6.08249815921592 -1.11388089688969
 6 -9.58807317061706  3.90539093729373 -3.12019665246525
 6 -8.90476192989299  3.95950409660966 -4.49568597259726
 7 -6.31689010801080 -0.15219023672367 -1.12849794179418
 6 -7.47649717931793 -0.05301136973697 -1.96164037473747
 6 -7.70223773097310 -1.39056075967597 -2.56049857245725
 6 -6.82384193299330 -2.24442401420142 -2.06882304800480
 6 -6.02162057745775 -1.49064262936294 -1.08287441784178
 6 -8.68216367416742 -1.63309343534353 -3.69135603180318
 6 -6.29873354045405 -3.58948453235324 -2.01461501660166
 8 -6.59870426592659 -4.52336003440344 -2.60404666976698
 6 -5.05480404250425 -3.53831188378838 -0.95131745154515
 6 -5.38769624702470 -4.58935437653765  0.05127879967997
 8 -5.78600437203720 -4.45012402050205  1.21186755015502
 8 -5.05830552875288 -5.76668786518652 -0.34591773637364
 6 -5.41467903210321 -6.91588344164416  0.41137296709671
 6  2.29209018221822 -5.08079920012001  0.69791374577458
 6  3.44854938993899 -4.09450961186119  0.96956485628563
 6  4.08596798699870 -3.25967883798380  0.16876051105110
 6  3.69247358625863 -2.94768971027103 -1.24143364786479
 6  5.18099452525253 -2.32309735733573  0.58841264006401
 6  6.56721159245925 -2.61429435463546  0.01605307270727
 6  7.71607693129313 -1.71726108160816  0.60555624612461
 6  9.11290211151115 -1.90936577017702 -0.03652143464346
 6  9.61247762946295 -3.33755439583958  0.25299184148415
 6  10.04891547064707 -0.89650988838884  0.55180769626963
 6  11.40429773217322 -0.89584919181918 -0.26432519871987
 6  12.33521120972097  0.38680330783078  0.18767561516152
 6  13.59294174997500  0.45380024992499 -0.47481224442444
 6  14.43985228422842 -0.72512191479148 -0.38756290719072
 6  14.38003394299430  1.86141231283128 -0.17530678547855
 6  15.71428561896190  2.02697072527253 -0.85276027102710
 6  16.17301988638864  3.41293604640464 -0.47507812101210
 6  17.46485173427343  3.83340118171817 -1.33154708990899
 6  17.10913350305031  4.08294318601860 -2.82209443364336
 6  18.07025643174317  5.09534479977998 -0.81762122102210
 1 -2.44753047584758  1.15912018741874  3.30697116551655
 1 -6.55054303310331  5.66031141154115  0.70914990669067
 1 -8.97026743394339  1.07306760966097 -2.72595807460746
 1 -3.42124318911891 -3.20832614801480  1.89198725952595
 1 -1.70442756665667 -1.12872053365336  2.67545882198220
 1 -2.68027780688069 -2.75354851605160  4.24839838383838
 1 -3.09001979467947 -0.98843874827483  4.61315334513451
 1 -4.31364387608761 -2.00492957385739  3.79327327782778
 1 -2.32015732943294 -3.35719523682368 -0.30329095289529
 1 -1.47847567996800 -1.99366848314831  0.30120824242424
 1 -0.75899133263326 -3.33158445404540  2.43674789348935
 1 -1.49169389098910 -4.77450458165817  1.36751854985499
 1 -1.54288440224022  3.98352787718772  3.93296920662066
 1 -2.99362035213521  4.97406461246125  4.62856911461146
 1 -2.76559955495550  3.16626762426243  5.08805381138114
 1 -5.19587265116512  6.64723891829183  1.80376569796980
 1 -10.21984111761176  3.02410306740674 -3.17659091079108
 1 -10.16517731563156  4.74984882898290 -3.05960625132513
 1 -9.47392719251925  4.46426484048405 -5.33995919821982
 1 -8.00558006740674  4.64968471387139 -4.33948390339034
 1 -8.42983283228323  2.85905526432643 -4.82067199199920
 1 -8.60469805940594 -0.86971751465146 -4.39187018531853
 1 -8.69102008500850 -2.55825923102310 -4.16290892789279
 1 -9.67710779027903 -1.25697252065207 -3.49932683938394
 1 -4.17531488888889 -3.83374820142014 -1.58893218011801
 1  2.40495162816282 -6.13806174917492  0.91494745164517
 1  2.04429517291729 -5.17120409650965 -0.38455190479048
 1  3.75728785108511 -4.17017629942994  1.90593560116012
 1  2.68033302000200 -3.02270789188919 -1.38304084508451
 1  3.75808042134213 -1.84869842914291 -1.32060453095310
 1  4.18052022602260 -3.53587731693169 -1.90174910081008
 1  4.84111415231523 -1.27061348534854  0.43174505800580
 1  5.22000052735274 -2.49160079247925  1.69379425972597
 1  6.83928145484548 -3.63292648474848  0.15000288428843
 1  6.46505666606661 -2.29317692669267 -1.12675327082708
 1  7.40888982028203 -0.71285461056106  0.28679592509251
 1  7.62986508940894 -1.83455003810381  1.75636002130213
 1  9.17924203350335 -1.87610588578858 -1.14656799489949
 1  9.12305682438244 -4.25478424982498  0.08483469106911
 1  10.59894923572357 -3.24854905700570 -0.06802691619162
 1  9.84771383278328 -3.34591568306831  1.37405784848485
 1  9.55531468206821  0.01804753095310  0.37768313211321
 1  10.08910900840084 -1.24737127102710  1.49066860686069
 1  12.01719686098610 -1.85473550545055 -0.13891826502650
 1  11.22683877057706 -0.91596450135013 -1.29431076467647
 1  11.57773880738074  1.21028545774577  0.04670511531153
 1  12.40809563286328  0.17459865126513  1.32385066526653
 1  13.43401020172017  0.68014244654465 -1.66189842854285
 1  14.94987432573257 -0.54463267596760  0.66668234823482
 1  14.09965553655366 -1.89111812811281 -0.39269559105911
 1  15.29170015841584 -0.51848504670467 -1.31457835033503
 1  13.58436663086309  2.54324894399440 -0.12860464816482
 1  14.37859455975598  1.83489377857786  0.88861607550755
 1  16.34381603740374  1.20434904760476 -0.55844233493349
 1  15.72740832423242  1.85509942274227 -1.87082846254625
 1  15.18000940554056  4.12770814881488 -0.60871286938694
 1  16.41460423052305  3.41941858325833  0.33140304070407
 1  18.10914459585959  3.01988347954796 -1.36516559615962
 1  16.66829755015501  5.01023755265527 -2.96221858165817
 1  18.05213113661366  4.18125763906391 -3.34661926702670
 1  16.68395859605961  3.31143221322132 -3.37029506410641
 1  18.49533558075807  5.17311852935294  0.31696336053605
 1  18.84997251955195  5.38045219741974 -1.45658257265727
 1  17.33127467836784  6.08960846394639 -0.74316837813781
 1 -5.09539484088409 -7.88568800190019 -0.24225776347635
 1 -6.53073750405041 -6.85024211081108  0.43337684518452
 1 -5.01114928352835 -6.76170774637464  1.41058551515152
 8 -7.83359095069507  6.85720222102210 -0.32809059305931
 1 -8.88042633973397  6.48693433833383 -2.05264094689469

