%nproc=4
%Mem=2GB
# td=(NStates=1) iop(3/107=0140000000,3/108=0140000000) iop(3/107=0140000000,3/108=0140000000) CAM-B3LYP/6-31G(d,p) 

TD

0 1
12 -6.95723829592959  0.66347549164916  0.07647526702670
 6 -4.69243635013501 -2.03341176297630  0.46930720772077
 6 -4.42800461586159  2.87421905500550  0.71259414101410
 6 -9.15436814151415  3.24203822792279 -0.17666716841684
 6 -9.34807290489049 -1.90369339893989 -0.61407146584658
 7 -4.86397146904690  0.39524892259226  0.55280431253125
 6 -4.09152641824182 -0.82360206700670  0.59915047044704
 6 -2.57269068766877 -0.42020377957796  0.99100116241624
 6 -2.54494446024602  0.98767891669167  1.17535969846985
 6 -3.98003426632663  1.53768385358536  0.84757953265327
 6 -2.04919120482048  1.35496729262926  2.63412797559756
 6 -1.70110885928593 -1.02916547994800 -0.18480715441544
 6 -0.19389750805081 -0.95870757735774  0.18864793829383
 6  0.69441052025203 -1.00106734363436 -1.01200937473747
 8  0.50403047114711 -0.63522613511351 -2.10204119431943
 8  1.73651393799380 -1.70338063666367 -0.57384230673067
 7 -6.70903264546455  2.57811818181818  0.16900064796480
 6 -5.73485404630463  3.30330897409741  0.64144044024402
 6 -5.93901811701170  4.75384506930693  0.68060292889289
 6 -7.32825353875388  4.76622271277128  0.43966054935494
 6 -7.79231093499350  3.39812862126213  0.18584341574157
 6 -5.10927584788479  6.02859028952895  1.17627529552955
 6 -8.01132269356936  5.94610153025303  0.08519804350435
 8 -7.61012492869287  7.24770638723872  0.20036789358936
 7 -8.97961151465146  0.64871573077308 -0.12554520362036
 6 -9.59664333673367  1.75679041434143 -0.44649570187019
 6 -11.00758738903891  1.42511238233823 -0.84019980118012
 6 -11.03932829032903  0.07941884628463 -0.76546740224022
 6 -9.76529819311931 -0.40369853305331 -0.46579865656566
 6 -11.91332810811081  2.42769896299630 -0.98209286008601
 6 -12.09359247974797 -0.69978354065407 -1.17859599329933
 6 -11.81304816691669 -1.04575674087409 -2.58758155285529
 7 -7.01961844474447 -1.40374293559356 -0.03518616311631
 6 -8.21116377797780 -2.31597159385939 -0.30831402940294
 6 -7.63078066316632 -3.79741706410641 -0.25338634873487
 6 -6.29372499369937 -3.67214637553755  0.09944168356836
 6 -6.06618290699070 -2.20217903240324  0.24447063136314
 6 -8.57433595709571 -5.04398177597760 -0.40473328922892
 6 -5.00351655615562 -4.36599239733973  0.19472749844984
 8 -4.79363111181118 -5.53695423372337 -0.09666916031603
 6 -3.95245897129713 -3.37330788998900  0.53958860606061
 6 -3.26358986988699 -3.73800997649765  1.84860457345735
 8 -3.70644588468847 -3.85937267206721  2.88968763856386
 8 -2.02546422132213 -3.82192849814982  1.61724166336634
 6 -1.04934345644564 -4.04702979307931  2.81393581878188
 6  3.09147103990399 -1.83448862576258 -1.26976822092209
 6  4.08442220962096 -0.83701070217022 -0.96745227752775
 6  5.13373412881288 -0.83332020342034 -1.87732393399340
 6  5.36966094989499 -1.73467660236024 -3.12442942514251
 6  6.13607743234323  0.25720806790679 -1.49934649314932
 6  7.42773146714671 -0.56727250935094 -0.80300703800380
 6  8.67605016531653  0.50483611821182 -0.69819830033003
 6  9.85821891129113 -0.34799171947195 -0.19867817351735
 6  9.70059757605761 -0.84164297899790  1.32655702450245
 6  11.07775010501050  0.62736759095910 -0.31691685328533
 6  12.35843111361136 -0.20198889168917  0.07721603280328
 6  13.53921546414641  0.74907218191819  0.20964386278628
 6  14.93572990819082  0.30554383248325  0.29775443754375
 6  14.88869385748575 -0.65458773927393  1.60879080308031
 6  16.00598022642264  1.28731363336334  0.34363756905691
 6  17.54761423952395  0.64613983838384  0.26790991709171
 6  18.68722827022702  1.63420061126113 -0.02505265206521
 6  20.10756295739574  0.90417891269127 -0.18540862456246
 6  20.15931573287329  0.22263769406941 -1.53570936213621
 6  21.29378654755476  2.01688310631063  0.08293319741974
 1 -3.69906054435443  3.82273352435244  0.95650505220522
 1 -9.98249223172317  3.77607669276928 -0.31153478737874
 1 -9.93490598219822 -2.80840123942394 -0.91038386428643
 1 -2.43496601340134 -1.02664028182818  1.87784783308331
 1 -1.84792413101310  1.58878935513551  0.60465691909191
 1 -1.40709209290929  0.78629694409441  2.91015172627263
 1 -1.48620679457946  2.52389096549655  2.78688480628063
 1 -3.05182751525153  1.64658254355436  3.29707557665767
 1 -2.17979700000000 -2.05080635363536 -0.55558334513451
 1 -1.82347751675168 -0.18089956285629 -1.34156394719472
 1 -0.01802380408041  0.32467103380338  0.51762762796280
 1  0.15538181838184 -1.73039937373737  0.94984521662166
 1 -4.12152668306831  6.38105593349335  0.45917087478748
 1 -5.88492877347735  7.14252692859286  1.16822372847285
 1 -4.94562559075908  6.15414437543754  2.34040181248125
 1 -8.97401041514152  5.89943505270527 -0.09523589938994
 1 -12.17017657125712 -1.37294816231623 -0.27553198039804
 1 -12.85004121912191  0.14567096689669 -1.17538517491749
 1 -12.62301012411241 -1.55489760516052 -3.12673979107911
 1 -11.58105506930693 -0.24838741724172 -3.01478364786479
 1 -11.06476330073007 -1.70398371537154 -2.82354896229623
 1 -9.31384056735673 -4.88359491509151 -1.05394762276228
 1 -7.53810902550255 -6.03220323292329 -0.45551520342034
 1 -9.31145842584258 -5.43394535573557  0.89183379287929
 1 -2.85382496389639 -3.13266699159916 -0.16565487228723
 1  3.31359297469747 -2.90074734853485 -0.87613333043304
 1  2.96169045784578 -1.96434234923492 -2.46132636793679
 1  3.65297262496250 -0.06450919931993 -0.19168556695670
 1  4.36384944194419 -1.67870134263426 -3.62984309930993
 1  6.44338791719172 -1.40888956435644 -3.58135935983598
 1  5.49314314171417 -2.78528114241424 -3.02901708550855
 1  6.41908233013301  0.68848418581858 -2.70872348954896
 1  5.62408751815181  1.26822237003700 -0.88034229762976
 1  7.05380655955596 -0.76639483658366  0.19509123072307
 1  7.80982638103810 -1.41555034533453 -1.61977145304530
 1  8.88771090249025  1.21755235003500 -1.77560034533453
 1  8.40417891599160  1.24799998819882  0.29596530493049
 1  10.16073852095210 -1.48039548324832 -0.80666782438244
 1  9.09065130943094 -1.95831464716472  1.64790315111511
 1  10.64721079047905 -0.94017789898990  1.46197808920892
 1  9.46389960156016 -0.09325054745474  2.04017532263226
 1  10.98229186698670  1.24546730663066 -1.69941711331133
 1  10.75299504610461  1.48083695929593  0.60015389568957
 1  12.65050259245925 -0.50953339283928  1.60816449974998
 1  12.75741789578958 -0.94682290289029 -0.85712871037104
 1  13.42271714171417  0.99802934793479 -0.83405230983098
 1  13.38222026682668  1.33736798809881  1.03260905030503
 1  15.09197062286229 -0.53502101810181 -0.23328151935193
 1  14.75663556345635 -0.22193179767977  2.40830360336034
 1  14.32770004350435 -1.52999067096710  1.62838033613361
 1  16.16534356745674 -0.85014859795980  1.89485596329633
 1  16.08860999589959  2.21010100350035 -0.52481245594560
 1  16.08290232283228  1.95963549904991  1.19285760896089
 1  17.44314562966296  0.05982915351535  1.52930311701170
 1  17.84088161236124 -0.19444127492749 -0.13358473587359
 1  18.39245425252525  2.38894544234423 -0.76133912221222
 1  18.77691768786879  2.33150705760576  0.85492216271627
 1  20.01118367956796  0.01581442764276  0.78491184198420
 1  20.45876419441944  1.12058710831083 -2.05166729192919
 1  21.16463075307531 -0.46794859665967 -1.48998313171317
 1  19.35944867186719 -0.37155487388739 -1.73717179187919
 1  20.88274505310531  2.73759333843384  1.24344509810981
 1  22.61791953225323  1.38486506920692  0.03453073807381
 1  21.26611326422642  2.84456194339434 -0.96651144744474
 1 -0.25050067516752 -4.00217296669667  2.53572192019202
 1 -1.24583426442644 -5.03502077577758  3.29783041964196
 1 -0.98994300760076 -3.56572504960496  3.40107426062606
 8 -11.74880325462546  3.59160395959596 -0.81590340404040
 1 -12.69047955945595  2.29330057015701 -1.74374497949795

