%nproc=4
%Mem=4GB
# td=(NStates=1) iop(3/107=0140000000,3/108=0140000000) iop(3/107=0140000000,3/108=0140000000) CAM-B3LYP/6-31G(d,p) 

TD

0 1
12 -5.65429693629363  1.24615949024902  0.14204280948095
 6 -5.10154054125413 -2.12172063536354 -0.32191905870587
 6 -3.48708749784979  1.17411769656966  2.92930830413041
 6 -6.17754655035504  4.54487775197520  0.66500670947095
 6 -7.94323009010901  1.21827267796780 -2.40895856935694
 7 -4.37677193049305 -0.32666085788579  1.13842518131813
 6 -4.32559608710871 -1.55788949054906  0.63250560016002
 6 -3.28065118961896 -2.37670097289729  1.48101246494649
 6 -3.03880705170517 -1.40182307320732  2.66227278337834
 6 -3.71600902830283 -0.07757038473847  2.19097368256826
 6 -3.81047408680868 -1.83083652505251  3.94495719511951
 6 -1.97276246944694 -2.65503291259126  0.67342264776478
 6 -1.07180882438244 -3.57668524912491  1.37059064706471
 6  0.22322742324232 -3.86080992169217  0.64465265996600
 8  0.48758882318232 -3.29067638123812 -0.44310054425443
 8  0.97970481618162 -4.83418303560356  1.22613722102210
 7 -4.92330314661466  2.57800717761776  1.44616484818482
 6 -4.11267335713571  2.37232465416542  2.52915351865187
 6 -3.81833133683368  3.62667116931693  3.23405396159616
 6 -4.46766731943194  4.56970849914991  2.68444771607161
 6 -5.26026213041304  3.93950204540454  1.49305539783978
 6 -2.83413877697770  3.85618299409941  4.33768795819582
 6 -4.64823135373537  5.98675609610961  2.90903040784078
 8 -4.08305835383538  6.55655354335433  3.81042494239424
 7 -6.89898369826983  2.60557045284528 -0.68489014531453
 6 -6.99411212601260  3.88665828302830 -0.33061475017502
 6 -7.89575476187619  4.60808753355336 -1.20223433293329
 6 -8.40512996629663  3.64265119501950 -2.05255419981998
 6 -7.75307419791979  2.41683769256926 -1.69723567006701
 6 -8.20137312821282  5.92908281768177 -1.17122663146315
 6 -9.41798616191619  3.70883128132813 -3.18502313511351
 6 -8.71796325002500  4.15414356055606 -4.52320872487249
 7 -6.34882330133013 -0.12725774347435 -1.24521961396140
 6 -7.30719024862486 -0.02997906650665 -2.10355456615662
 6 -7.49901740894089 -1.30004170777078 -2.81986450905090
 6 -6.64461401020102 -2.09870944274427 -2.02875904160416
 6 -5.95619403480348 -1.36861042614261 -1.16300243064306
 6 -8.38332379017902 -1.66036616261626 -3.97538443464346
 6 -6.05585925302530 -3.51923750765076 -1.95969952505251
 8 -6.45464986048605 -4.49250694909491 -2.64274053915392
 6 -5.10251881398140 -3.57070512311231 -0.77672999279928
 6 -5.34581205860586 -4.59720516161616  0.20619429122912
 8 -5.90492626422642 -4.49393840194019  1.27032339573957
 8 -4.94443414161416 -5.90135133153315 -0.20729387398740
 6 -5.31348891309131 -6.97416927022702  0.56135796559656
 6  2.39199017221722 -5.06694781498150  0.59669362376238
 6  3.38577311231123 -4.04543470437044  1.01047894769477
 6  4.02997238743874 -3.24057692779278  0.16253988898890
 6  3.67099143804380 -3.03840878217822 -1.33541304580458
 6  5.13875030083008 -2.37038208580858  0.62973677247725
 6  6.54046891819182 -2.66040896609661  0.09238070547055
 6  7.61674699829983 -1.54304365986599  0.49108479897990
 6  8.98767958925893 -1.94903973757376 -0.08948673117312
 6  9.52072845454546 -3.27312795319532  0.30165670797080
 6  10.01802238133813 -0.89428966636664  0.31581409690969
 6  11.46813411581158 -0.97850745764576 -0.35797456365637
 6  12.35052274087409  0.21924655215522  0.03046989458946
 6  13.66414887068707  0.44044891479148 -0.65295005820582
 6  14.48110640964097 -0.78875827842784 -0.52407655855586
 6  14.27848378797880  1.74828099969997 -0.22335158995900
 6  15.53040723112311  2.21964999319932 -1.10641563656366
 6  16.10299288368837  3.54465921872187 -0.68005861906191
 6  17.36471172027203  3.84911275287529 -1.29249318451845
 6  17.24445703540354  4.05467035873587 -2.83771599579958
 6  17.85946535263526  5.16028129342934 -0.67180663956396
 1 -2.93257898069807  0.96560083548355  3.96725719411941
 1 -6.40569854865487  5.65951133153315  0.93811280298030
 1 -8.58559896709671  1.33602390529053 -3.48746422522252
 1 -3.84386545134513 -3.26916223162316  1.77423548434844
 1 -1.94501162506251 -1.25841350295029  2.73887516361636
 1 -3.32397217631763 -2.62757591879188  4.36759030303030
 1 -3.92744353705370 -1.08042794719472  4.74528655845585
 1 -4.97299981168117 -2.13869295019502  3.69483343384338
 1 -2.28604391809181 -3.00342986028603 -0.21714233803380
 1 -1.34260209260926 -1.57768688498850  0.66279440104010
 1 -0.70486592009201 -3.12452374797480  2.38922314101410
 1 -1.50887560916092 -4.54604173537354  1.83986578457846
 1 -1.84018413221322  3.51289081348135  3.91537744744474
 1 -2.84244523462346  4.91584879087909  4.56357261496150
 1 -2.99615261026103  3.13613461096110  5.04013901990199
 1 -5.46252931683168  6.37997219161916  2.23717903930393
 1 -10.06035516901690  2.82834349144914 -3.52154540624062
 1 -10.05820661856186  4.59822366646665 -2.82646293699370
 1 -9.47201700150015  4.25642405640564 -5.24871007330733
 1 -8.16493600300030  5.01860160556056 -4.36768672367237
 1 -7.84908475747575  3.31547090589059 -4.59100902570257
 1 -8.11614920452045 -0.96480702360236 -4.80790178847885
 1 -8.34218520152015 -2.72947635273527 -4.15048768576858
 1 -9.40203028252825 -1.49839666306631 -3.54482138883888
 1 -4.12255961336134 -3.89594442104210 -1.37085037193719
 1  2.36012714571457 -6.15125306830683  1.13402935983598
 1  2.44779552295230 -5.11501847794780 -0.41696514611461
 1  3.90321244354435 -4.25601488328833  2.03452846044604
 1  2.47263224992499 -3.16981260236024 -1.43390593159316
 1  3.90529514281428 -2.09400295959596 -1.54982745324532
 1  4.38979115311531 -3.57101083028303 -1.91446037193719
 1  4.78618865976598 -1.40895731973197  0.53402528602860
 1  5.25506403370337 -2.05639727212721  1.64471935223522
 1  6.82865039173917 -3.62246543864386  0.48690657465747
 1  6.38721888228823 -2.73765137413741 -1.07687828332833
 1  7.26364529582958 -0.70546387148715  0.30041728722872
 1  7.63414551745175 -1.57383396649665  1.73774816011601
 1  8.78882299159916 -1.72065034023402 -1.16971030913091
 1  8.84771929062906 -4.01485025642564 -0.01025481788179
 1  10.54691403220322 -3.31059526162616 -0.28911902540254
 1  9.58055711711171 -3.41644273577358  1.29562000470047
 1  9.55548469906991 -0.03966824062406 -0.08336297249725
 1  10.11075117261726 -0.86447298119812  1.42753229322932
 1  11.92839798109811 -1.95659569146915  0.00453608040804
 1  11.31339742644264 -1.13559646454645 -1.32047338093809
 1  11.63035406890689  1.05168959815982 -0.00815037023702
 1  12.56376119941994  0.23348453985399  0.92804108430843
 1  13.45497229792979  0.63629806210621 -1.77532977167717
 1  14.80879021732173 -0.99991820452045  0.61713739373937
 1  14.15858142914291 -1.75270428672867 -0.85504182568257
 1  15.43047403580358 -0.84409760796080 -0.91246813931393
 1  13.40630882508251  2.45940055915592 -0.03884567226723
 1  14.86244294459446  1.64158444764476  0.77898511241124
 1  16.36339799559956  1.54238285098510 -0.77796428712871
 1  15.22577816121612  2.22271618441844 -2.14149552925292
 1  15.24332573717372  4.31579695769577 -0.73067506560656
 1  16.17428019811981  3.59042568396840  0.41227112751275
 1  18.10758443984398  2.85035652685269 -1.15569464906491
 1  16.77839856025603  5.04514104300430 -3.06295865566557
 1  18.28413433693369  3.87783729702970 -3.39956456155616
 1  16.51096129632963  3.25385645564556 -3.03463149774977
 1  18.06694274147415  4.85514673217322  0.27277894209421
 1  18.89963748604860  5.22057620982098 -1.09092600700070
 1  17.06776832773277  5.97644714781478 -0.87637169846985
 1 -5.42652795419542 -7.94708414151415 -0.05932947064706
 1 -6.25828025832583 -6.69339642624263  0.98512201970197
 1 -4.76365453405341 -7.23150472607261  1.55350980758076
 8 -7.69946753835384  6.76936343714371 -0.44558234223422
 1 -9.02252054915492  6.32045769066907 -1.86568225102510

