%nproc=4
%Mem=4GB
# td=(NStates=1) iop(3/107=0140000000,3/108=0140000000) iop(3/107=0140000000,3/108=0140000000) CAM-B3LYP/6-31G(d,p) 

TD

0 1
12 -5.56964847144714  1.27648252255226  0.17503610881088
 6 -5.11885227242724 -2.15821428472847 -0.29908677547755
 6 -3.40666945604560  1.17747803260326  2.72782815611561
 6 -6.25949474517452  4.53785704990499  0.73476368516852
 6 -7.92793856095610  1.15437628832883 -2.36144381788179
 7 -4.46311056435644 -0.26428462026203  1.02481382018202
 6 -4.32011553905391 -1.59262296389639  0.66728907850785
 6 -3.31302442694269 -2.31797510031003  1.54776914061406
 6 -2.97392056305631 -1.25116800770077  2.58419497559756
 6 -3.68534596199620 -0.03085571327133  2.08938352355236
 6 -3.69249228862886 -1.74070751215122  4.02970566996700
 6 -1.95307050025002 -2.55985339463946  0.68927423292329
 6 -1.01044268776878 -3.43299087968797  1.38632222022202
 6  0.21614671517152 -3.90321416211621  0.57366556125613
 8  0.44155421972197 -3.39901721532153 -0.56322255645565
 8  1.09539638533853 -4.59368898619862  1.32992760006001
 7 -4.93484430073007  2.67187656455646  1.43857408910891
 6 -3.95364745454545  2.41019844154415  2.45607621092109
 6 -3.73193269696970  3.63833233543354  3.18349890609061
 6 -4.52118267096710  4.56095762406241  2.56692596389639
 6 -5.27463356755676  3.95096319151915  1.46773286558656
 6 -2.54782014511451  3.86229360516052  4.24408859825983
 6 -4.65162169276928  5.97084450495049  3.05329483428343
 8 -4.01683173117312  6.56632452045204  3.84858875877588
 7 -6.87351115101510  2.57667756355636 -0.71716337263726
 6 -6.98841155595560  3.94805442264226 -0.28216990569057
 6 -7.97815300170017  4.49898662346235 -1.15422953245324
 6 -8.54516396969697  3.55838276817682 -1.98849779417942
 6 -7.74904379487949  2.40881689048905 -1.70463641014101
 6 -8.46056904780478  5.89428933833383 -1.02991250005000
 6 -9.39896425972597  3.76463686188619 -3.28607324012401
 6 -8.54406586028603  4.04576272247225 -4.57814421842184
 7 -6.32023044204420 -0.12661767946795 -1.06610170217022
 6 -7.26427595719572 -0.06593266186619 -2.11446565726573
 6 -7.45756326352635 -1.35390709430943 -2.76722924552455
 6 -6.64268381718172 -2.29146871867187 -2.07101326702670
 6 -5.98927734313431 -1.40283384848485 -1.10833696409641
 6 -8.33822928072807 -1.54314444044404 -3.95352224842484
 6 -6.18232189928993 -3.57475305920592 -1.98702225732573
 8 -6.45913030853085 -4.53618131653165 -2.69018528362836
 6 -5.09122768486849 -3.59950800340034 -0.84557687748775
 6 -5.41392887028703 -4.54108955005501  0.19659333113311
 8 -5.93773954555455 -4.43808281638164  1.24775113851385
 8 -5.14703440164016 -5.77341853825383 -0.40191333593359
 6 -5.31797936213621 -7.02176402970297  0.47885971577158
 6  2.34384535773577 -5.02960408060806  0.68617257165717
 6  3.42728726372637 -4.12875303620362  1.04395229502950
 6  4.04544393459346 -3.22277514761476  0.19919355435544
 6  3.69468380728073 -3.11112605390539 -1.25649515401540
 6  5.20258668446845 -2.40762581018102  0.64827862666267
 6  6.44701957325733 -2.65275820102010 -0.14439297189719
 6  7.62636796039604 -1.82037139263926  0.56684237473747
 6  9.03661448274828 -2.00073490709071 -0.09595737823782
 6  9.53933031473147 -3.44209484988499  0.24994153645365
 6  10.00932151125112 -0.90287052445245  0.33322583808381
 6  11.43085038743874 -0.94439404630463 -0.33069183538354
 6  12.23429111771177  0.22620724822482  0.12347919551955
 6  13.58148060386038  0.33132800270027 -0.61169593279328
 6  14.56202450145014 -0.80137954055406 -0.36809095999600
 6  14.25712165176518  1.72687885948595 -0.18127738253825
 6  15.52599679007901  2.12157018521852 -1.10704569956996
 6  16.05012759715972  3.48295304810481 -0.66020663386339
 6  17.39594484358436  4.02642048364836 -1.34248818401840
 6  17.25856844654465  4.10015490719072 -2.80461268546855
 6  17.78796820292029  5.24495976127613 -0.68742820172017
 1 -2.85066078887889  1.12907718311831  3.74025449384939
 1 -6.52295027382738  5.53443882428243  0.90357934963496
 1 -8.58580898809881  1.11159146204620 -3.12302778157816
 1 -3.71467253205321 -3.31968728412841  2.00732879367937
 1 -1.92765988988899 -1.03701136273627  2.60725200130013
 1 -3.09187896699670 -2.72370553175317  4.59610315431543
 1 -3.53758455115512 -0.94891479587959  4.60378240804080
 1 -4.67135964766477 -1.89397847874787  4.00989493999400
 1 -2.04194950865087 -2.99604912221222 -0.28408903270327
 1 -1.58222605500550 -1.58418753505351  0.47809593119312
 1 -0.43275870937094 -3.14989628522852  2.51516573527353
 1 -1.49889461106111 -4.38632576377638  1.60216201420142
 1 -1.62381249504950  3.75446497089709  3.63157906760676
 1 -2.71163215331533  4.90235744174417  4.60748700640064
 1 -2.85897889288929  3.42673367086709  5.17806281228123
 1 -5.17764082798280  6.76323051745175  2.37084240564056
 1 -9.99915904940494  2.78701935903590 -3.54808806050605
 1 -10.14579537743774  4.62271611571157 -3.13725401610161
 1 -9.25487528732873  4.05946436043604 -5.47536273857386
 1 -8.11958146754676  5.07978772417242 -4.50525048004800
 1 -7.91700154915491  3.09944930373037 -4.70448037283728
 1 -7.87847543714371 -1.19621016391639 -4.82942394069407
 1 -8.30814179717972 -2.68789219431943 -4.19672230923092
 1 -9.47877795729573 -1.27812463586359 -3.78233514021402
 1 -4.05217257465747 -3.86042086868687 -1.26496978387839
 1  2.40140127312731 -6.00784872787279  1.12312826972697
 1  2.09990073347335 -5.28656563266327 -0.31944539413941
 1  3.91257337963796 -4.27972725452545  2.17416242384238
 1  2.64966995369537 -3.36166178727873 -1.49838237923792
 1  3.83521813511351 -1.90381394069407 -1.39508197869787
 1  4.42974514851485 -3.51017474667467 -1.84919384528453
 1  4.75843588448845 -1.35505192919292  0.72954483798380
 1  5.40231875917592 -2.79248088048805  1.72171705200520
 1  6.69581710841084 -3.76391958405841 -0.18219033503350
 1  6.61743190359036 -2.27210481948195 -1.20035063056306
 1  7.50583951525153 -0.64574789988999  0.53572081758176
 1  7.80143224612461 -2.25697228032803  1.52851723702370
 1  9.03529763906391 -2.02206048124812 -1.19506284438444
 1  8.73723824252425 -4.12060083148315  0.08778498609861
 1  10.52458179897990 -3.59676387848785 -0.24834494799480
 1  10.11706076747675 -3.62565365686569  1.32507294999500
 1  9.65861501210121  0.06512223842384  0.01232659645965
 1  10.10341043854385 -0.71216775067507  1.44732427242724
 1  11.95504064536454 -1.86308634053405  0.05109073587359
 1  11.34771085778578 -0.93228613351335 -1.42376370997100
 1  11.51965299879988  1.06987141634163  0.06862730753075
 1  12.48887371067107  0.22936412781278  1.19075735593559
 1  13.41971877257726  0.19401383368337 -1.76842908160816
 1  14.81101043934393 -0.87108532123212  0.83804948494850
 1  14.09755532653265 -1.79765878217822 -0.56454277577758
 1  15.54403539193919 -0.79199239743974 -0.86501339383938
 1  13.51917011121112  2.50723534263426 -0.70243203090309
 1  14.32153885418542  1.48951924112411  0.98460567446745
 1  16.45850750655065  1.32148076077608 -1.20909740044004
 1  15.10700628402840  2.05088900170017 -2.10063144284428
 1  15.32091349594960  4.22825820382038 -0.92442444054405
 1  16.03197596769677  3.45380202160216  0.46553645404540
 1  18.21447512891289  3.27730922212221 -0.97278635823582
 1  16.51362208260826  4.98566509540954 -3.02266462626263
 1  18.33585950945094  4.26943645694570 -3.45921052615261
 1  17.05181538173817  3.13973504350435 -3.24459249384938
 1  17.91339738693869  5.08686990449045  0.34812647684768
 1  18.82493001530153  5.61406555875588 -0.86378329272927
 1  17.29868141904190  6.26554605770577 -1.04213827512751
 1 -4.88691399279928 -7.88130756385639 -0.04292783048305
 1 -6.46502093239324 -7.04518160476048  0.91570507800780
 1 -4.68756692529253 -6.79928150375038  1.55069952655266
 8 -7.95541313291329  6.78877537833783 -0.30237802180218
 1 -9.33297159425943  6.01585723062306 -1.86712239503950

