%nproc=4
%Mem=4GB
# td=(NStates=1) iop(3/107=0140000000,3/108=0140000000) iop(3/107=0140000000,3/108=0140000000) CAM-B3LYP/6-31G(d,p) 

TD

0 1
12 -5.63634514111411  1.31447632193219  0.17849645484548
 6 -4.95705609280928 -2.21117958125813 -0.28048491529153
 6 -3.44576336543654  1.21441172597260  2.80581595489549
 6 -6.19138793449345  4.50721398559856  0.64796500530053
 6 -8.00813658075808  1.12193304400440 -2.22662033553355
 7 -4.40447470077008 -0.24208240004000  1.08165950475048
 6 -4.19721324882488 -1.61414511611161  0.58172052165217
 6 -3.23658678317832 -2.31616491929193  1.57468183188319
 6 -2.96690986198620 -1.28807169806981  2.66168272437244
 6 -3.58717614501450  0.00771814411441  2.05209979517952
 6 -3.48425146454645 -1.66078952035204  4.09109180858086
 6 -1.90039523272327 -2.62284969426943  0.69433473897390
 6 -0.95091673517352 -3.37194477507751  1.37387097509751
 6  0.24822992349235 -3.89607344804480  0.65087328202820
 8  0.66180624492449 -3.42050936453645 -0.44993122732273
 8  1.06327317301730 -4.69128874617462  1.43830843814381
 7 -5.01735255155516  2.56586596349635  1.51788201990199
 6 -3.94367645744574  2.45604302600260  2.42221282458246
 6 -3.73019252295230  3.72376087828783  3.21175173137314
 6 -4.58517907060706  4.59784131243124  2.59140841214121
 6 -5.31497760196020  3.95401349654965  1.54331042334233
 6 -2.82537790089009  3.84936231203120  4.42411660106011
 6 -4.71433796439644  5.98755617611761  3.02946245104510
 8 -4.17538758675868  6.46661454945495  4.09171307120712
 7 -6.84805860576058  2.67455735153515 -0.69393104940494
 6 -6.85140785558556  3.98459807700770 -0.43612530123012
 6 -7.88782396879688  4.62001872667267 -1.23962807230723
 6 -8.45574502780278  3.59321625152515 -2.10910985538554
 6 -7.78310720122012  2.40972698149815 -1.72055800230023
 6 -8.23691668256826  6.05142505190519 -1.28289779857986
 6 -9.40048441174117  3.83492389058906 -3.29153378617862
 6 -8.62521397509751  4.16316446264626 -4.57981438543854
 7 -6.37115553455346 -0.19315433313331 -1.01943703570357
 6 -7.27286681628163 -0.07879394799480 -1.97629183988399
 6 -7.49954746194619 -1.33085478907891 -2.68226074867487
 6 -6.64252380118012 -2.21112068386839 -2.11691785748575
 6 -5.91370978637864 -1.45692925802580 -1.09094522492249
 6 -8.54736019381938 -1.66352647864786 -3.82290918711871
 6 -6.23058672577258 -3.57482306620662 -1.97314086918692
 8 -6.54347874337434 -4.52418011641164 -2.61050731583158
 6 -4.99525808790879 -3.53338139073907 -0.98111043084308
 6 -5.26417389478948 -4.70595603670367 -0.02278860706071
 8 -5.71491726332633 -4.56910591869187  1.15589195259526
 8 -5.01370106830683 -5.88902009840984 -0.56605975057506
 6 -5.28521608580858 -7.04316616991699  0.19915174497450
 6  2.27555852905291 -5.04573569376938  0.81685563996400
 6  3.44506904190419 -4.10173033393339  0.99328722852285
 6  4.03751314151415 -3.32686555665567  0.06380001500150
 6  3.66484082298230 -3.24327926922692 -1.37947745224522
 6  5.08371479727973 -2.41158620622062  0.60824462326233
 6  6.55844071537154 -2.52320524572457  0.04945641304130
 6  7.70885620922092 -1.76527588308831  0.57588327882788
 6  9.01324214551455 -1.96721155475548 -0.02441022352235
 6  9.46832321402140 -3.52174281468147  0.26899344164416
 6  10.07016759585959 -0.89866010341034  0.43409592509251
 6  11.40698800120012 -1.01500110701070 -0.14754352055206
 6  12.28531622022202  0.21050567806781  0.24456130373037
 6  13.55793824962496  0.39913478337834 -0.57616237943794
 6  14.38458675767577 -0.81785118771877 -0.31956610751075
 6  14.20079601920192  1.68223439503950 -0.16483573837384
 6  15.44924911531153  2.12842087028703 -0.89225422042204
 6  15.96032861726172  3.60360511331133 -0.62174278747875
 6  17.22414766386639  3.96855469706971 -1.48027196239624
 6  17.03205579527953  3.89227411911191 -2.96881910611061
 6  17.83301270737073  5.33517878317832 -1.05850530943094
 1 -2.64427014981498  1.14804908030803  3.62974344274427
 1 -6.41847982678268  5.73862924332433  0.57011600330033
 1 -8.90424083128313  1.18328863176318 -3.01946742554255
 1 -3.73899496429643 -3.23081839723972  1.98896695749575
 1 -1.92515963986399 -1.19691735333533  2.66213748984898
 1 -2.89005878497850 -2.47403056425643  4.48187173117312
 1 -3.22798359105911 -0.98579848424842  4.79254128392839
 1 -4.43424593629363 -2.16218529942994  4.05305925642564
 1 -2.33316863056306 -2.92760227752775 -0.33671429522952
 1 -1.68456628902890 -1.57024614091409  0.49305742734273
 1 -0.61571700520052 -3.00862215781578  2.43270748944895
 1 -1.38277299889989 -4.34928205940594  1.67590938893889
 1 -1.66460657445745  3.81097062146215  4.11335724542454
 1 -3.14113510361036  5.02023922992299  4.81719797749775
 1 -2.99126212121212  3.15931692919292  5.25522052805281
 1 -5.31043410731073  6.87239143354335  2.55713103450345
 1 -10.10914004750475  2.97620827792779 -3.38911216291629
 1 -9.90523132103210  4.79450329442944 -2.95369566026603
 1 -9.30607040684068  4.51668008200820 -5.38755395769577
 1 -7.89428893829383  5.11168091349135 -4.54151410641064
 1 -8.32253210221022  3.27756711551155 -5.02132205700570
 1 -8.04434202380238 -1.17186772967297 -4.70342134043404
 1 -8.71966294929493 -2.65503890899090 -3.93832646964696
 1 -9.58646872637264 -1.31593841724172 -3.47471437813781
 1 -4.06843420082008 -3.74289911651165 -1.58415170207021
 1  2.62773390639064 -6.08495643864386  1.23882983988399
 1  1.90790153355335 -5.46426340244024 -0.36686013561356
 1  3.81801392369237 -4.25921520332033  1.89831483908391
 1  2.67090207690769 -3.14937055815582 -1.64506704770477
 1  3.98740335363536 -2.25019857915792 -1.83242571307131
 1  4.45183735773577 -3.99827355655566 -1.85804473037304
 1  4.79700974187419 -1.28354477847785  0.38771065456546
 1  5.28868739603960 -2.31621325372537  1.58529340964096
 1  6.75496302300230 -3.59627281938194  0.03849173317332
 1  6.40008016841684 -2.39283689268927 -1.07752834833483
 1  7.49569850115012 -0.76381970707071  0.48321556705671
 1  7.77274937783778 -1.78764534763476  1.64575896119612
 1  8.88837294659466 -1.91100937613761 -1.06027936603660
 1  8.82593711241124 -4.10778955035504 -0.08271206360636
 1  10.37724706550655 -3.76982118421842 -0.27656777027703
 1  9.63625268666867 -3.41749284078408  1.32824326702670
 1  9.77378652925293  0.06600232643264  0.25369073287329
 1  9.90285038253825 -0.72132866676668  1.57555709570957
 1  11.93095823712371 -2.09838987088709  0.04313994079408
 1  11.31570765746575 -1.03693659855986 -1.20414174777478
 1  11.58311934543454  1.11622605180518  0.34261470627063
 1  12.58223304660466 -0.15759456805681  1.31246952715272
 1  13.15616241694169  0.31956638893889 -1.56949918861886
 1  14.99961930023002 -0.89688790149015  0.73425910591059
 1  13.83919949094909 -1.86243525982598 -0.55437175867587
 1  15.34338532693269 -0.92740593879388 -0.99174606710671
 1  13.53258145234524  2.52276689578958 -0.20284207190719
 1  14.35566226652665  1.50740102930293  0.97505471937194
 1  16.06816847264727  1.10551916461646 -0.84023051375138
 1  15.23516910031003  2.01163507630763 -2.07526890659066
 1  14.99930133473347  4.23087846584659 -0.79051104920492
 1  16.24467723782378  3.66061270267027  0.47520742114211
 1  17.73067674907491  3.00075156635664 -1.31591067066707
 1  16.11664238463846  4.58527505640564 -3.35504786458646
 1  17.83681960546055  4.29554906820682 -3.39395400050005
 1  16.67014721492149  3.07004807480748 -3.34494252885289
 1  17.96079212641264  5.30982219971997  0.01894355855586
 1  18.86828435073507  5.65061921412141 -1.52670958535854
 1  17.16593814471447  6.08285778887889 -1.34914897619762
 1 -5.03062836423642 -7.99780921402140 -0.58022155985599
 1 -6.21164559485949 -7.09009609620962  0.62148565606561
 1 -4.72798096669667 -7.17953952955295  0.93795825242524
 8 -7.83356094769477  6.96734323512351 -0.49063684768477
 1 -9.10681897899790  6.33940958585859 -2.01261694449445

