%nproc=4
%Mem=4GB
# td=(NStates=1) iop(3/107=0140000000,3/108=0140000000) iop(3/107=0140000000,3/108=0140000000) CAM-B3LYP/6-31G(d,p) 

TD

0 1
12 -5.62082358895890  1.30885575987599  0.23616222142214
 6 -4.95710609780978 -2.10935939923992 -0.40133700050005
 6 -3.25000378947895  1.22263254805481  2.59685505880588
 6 -6.15963475917592  4.51268453265327  0.67841805060506
 6 -7.96757252435243  1.12862371307131 -2.43663133663366
 7 -4.32185643894389 -0.27056524832483  0.98522986178618
 6 -4.26284981248125 -1.64280798239824  0.65902825242524
 6 -3.20096322082208 -2.40062336513651  1.43321768546855
 6 -2.82407557855786 -1.31217410831083  2.58162471857186
 6 -3.47685511291129 -0.08607123482348  2.06666125132513
 6 -3.52463550295030 -1.64228767016702  3.99220191959196
 6 -1.87261245444544 -2.70105751505151  0.60707601310131
 6 -1.02360400390039 -3.65908348894890  1.35742933093309
 6  0.32421752225223 -3.87213105380538  0.55582377707771
 8  0.70031009530953 -3.33338065166517 -0.49350558475848
 8  1.03958080378038 -4.87725734303430  1.21911651895190
 7 -4.79900071637164  2.57991736863686  1.35161539323932
 6 -3.85280737053705  2.43128054975498  2.30592119541954
 6 -3.64687419111911  3.70051855405541  3.02342289848985
 6 -4.47289784248425  4.62913444174417  2.51445071637164
 6 -5.15437154135414  3.91930002520252  1.36571266356636
 6 -2.72467783088309  3.72213958975898  4.23518770817082
 6 -4.74018054865487  5.94987240774077  3.02210171497150
 8 -4.02166221422142  6.48419630763076  3.80508440834083
 7 -6.87919171907191  2.61617151295130 -0.63746540284028
 6 -6.98374108890889  3.93718333553355 -0.39240092879288
 6 -7.93073826022602  4.59936666146615 -1.15661977147715
 6 -8.40916036933693  3.62018894879488 -2.03948289268927
 6 -7.74449333983398  2.37099310811081 -1.83957990449045
 6 -8.39777276817682  5.99128903830383 -1.05521503030303
 6 -9.41635599889989  3.91708210641064 -3.13385801860186
 6 -8.74802625632563  4.05306345254525 -4.62456886088609
 7 -6.38633705270527 -0.09903492119212 -1.10591568356836
 6 -7.46572610221022 -0.02981905050505 -2.06728093879388
 6 -7.56386389358936 -1.36806851045105 -2.60946346894689
 6 -6.69459900870087 -2.17448702050205 -1.98461462716272
 6 -5.94569298469847 -1.37551111621162 -1.07828395879588
 6 -8.46816227402740 -1.66846697269727 -3.77678457465747
 6 -6.29241290839084 -3.54908049194919 -1.97104065916592
 8 -6.59859425492549 -4.49501720012001 -2.56616288138814
 6 -5.08351691379138 -3.60889894249425 -0.85399771957196
 6 -5.47224470187019 -4.61258669976998  0.23793746554655
 8 -5.95812158375838 -4.34702371047105  1.28130449384938
 8 -5.10086978517852 -5.77164836123612 -0.24750789538954
 6 -5.47205476967697 -6.84037589088909  0.64997682748275
 6  2.35444641784178 -5.17013813401340  0.60651460586059
 6  3.39299383438344 -4.09113927482748  1.01747964776478
 6  3.97557694789479 -3.21950482058206  0.15259889488949
 6  3.64877921682168 -3.10952589388939 -1.34616412091209
 6  5.05576200200020 -2.42928797639764  0.61342514131413
 6  6.55895076637664 -2.62557548274827  0.00459192659266
 6  7.72235755935594 -1.81910126562656  0.63199889038904
 6  8.98952977427743 -2.13963879747975 -0.05671345384538
 6  9.46581296299630 -3.48024866526653  0.13041958425843
 6  9.99865044414442 -1.01428166556656  0.45450796629663
 6  11.34136143854385 -0.93630323722372 -0.36643540974097
 6  12.21486917551755  0.22203683118312  0.15831267886789
 6  13.54641709750975  0.45369023892389 -0.54937970117012
 6  14.50934923392339 -0.74075347794779 -0.46175032593259
 6  14.19741568116812  1.72831900350035 -0.12214146894689
 6  15.64790898129813  2.10025805400540 -0.85551054605461
 6  16.02096468086809  3.59070382318232 -0.64311492469247
 6  17.29608485758576  4.07507534913491 -1.25831976717672
 6  17.18279086878688  4.11462635433543 -2.79651187538754
 6  17.70204961106111  5.34538980428043 -0.64169362826283
 1 -2.45297101990199  1.13823809920992  3.38705917431743
 1 -6.46646462526253  5.45841122152215  0.84678367006701
 1 -8.67639804700470  1.10537083998400 -3.28857433623362
 1 -3.38192925772577 -3.41895721112111  2.06656471727173
 1 -1.79127625152515 -1.24871253285329  2.87572884898490
 1 -3.26308608770877 -2.53288644984498  4.53591713571357
 1 -3.33521431413141 -0.84479438383838  4.77585961576158
 1 -4.45239775147515 -1.73844292519252  3.77706165666567
 1 -2.10784609830983 -3.03005252255226 -0.49705032883288
 1 -1.42157999039904 -1.80783990029003  0.54035215681568
 1 -0.80520595409541 -3.38301959755976  2.38996321502150
 1 -1.34042876447645 -4.71358849004900  1.57069886788679
 1 -1.59823993779378  3.57781730613061  4.02987889758976
 1 -2.78694968506851  4.65753295929593  4.53670992869287
 1 -3.01056405140514  2.88430942844284  4.97834284028403
 1 -5.53322638653865  6.66975116951695  2.56801212261226
 1 -10.23829296279628  3.10199085618562 -3.24545779747975
 1 -10.00680147804781  4.93383722782278 -2.95893618431843
 1 -9.56182598239824  4.53646206020602 -5.32153735603560
 1 -7.64095360476048  4.53213295869587 -4.60929088408841
 1 -8.53165301430143  3.02041139993999 -5.13898382318232
 1 -8.27067465706571 -1.01739228212821 -4.46297729602960
 1 -8.38830981398140 -2.67099050415042 -4.12289492649265
 1 -9.36809688918892 -1.62968979237924 -3.37552445914591
 1 -4.24093145054505 -3.88135296189619 -1.34226751365136
 1  2.67842897589759 -6.09573751675168  0.85152110901090
 1  2.19914065746575 -5.38618559465947 -0.51113456305631
 1  3.86106822912291 -4.06733601540154  1.95599060666067
 1  2.44756974367437 -3.31175679677968 -1.50561310231023
 1  3.81168578187819 -2.09430298959896 -1.52243471397140
 1  4.28194036803680 -3.80718444764476 -2.04651357725773
 1  4.86236627752775 -1.39577600160016  0.50012189568957
 1  5.26082460976098 -2.56228786118612  1.77786266656666
 1  6.76011353805381 -3.72587577967797  0.19732761676168
 1  6.15823598399840 -2.64380198919892 -1.18638923442344
 1  7.52082101340134 -0.74277760286029  0.45517276277628
 1  7.63529563246325 -1.86420300340034  1.63283766906691
 1  8.64676878617862 -1.90715899109911 -1.13450678877888
 1  8.73945846454645 -4.36389516091609 -0.10482427482748
 1  10.49474881568157 -3.58456265836584 -0.45284539803980
 1  9.57168623002300 -3.48983007450745  1.15459590229023
 1  9.55574472507251  0.06699242544254  0.46062142594259
 1  10.06384648214821 -1.39294582848285  1.43884342434243
 1  12.06911205250525 -1.89705973787379 -0.31962633583358
 1  11.04883096979698 -0.89544244914491 -1.43371470507051
 1  11.58103913741374  1.21962639183918  0.11778222302230
 1  12.44417924122412  0.06545773717372  1.02464074427443
 1  13.30257705840584  0.69596402870287 -1.63399563826383
 1  14.82784212251225 -0.96634484718472  0.55247092709271
 1  14.17452302330233 -1.63999301560156 -0.66639296079608
 1  15.35539652805281 -0.66158935713571 -1.13449034153415
 1  13.40247844204420  2.53183780288029 -0.48645043274327
 1  14.27925462576258  1.85835612481248  1.07088430233023
 1  16.38433008880888  1.42470108280828 -0.39465595629563
 1  15.44852043544354  1.95986989978998 -1.92642402210221
 1  15.20161156575658  4.30526590459046 -0.91081307940794
 1  16.28306107620762  4.03911055245525  0.47378727912791
 1  18.17088076947695  3.36477796899690 -1.27431651125112
 1  16.14533525392539  4.60287681658166 -3.21004336413641
 1  17.94030995449545  4.79887940124012 -3.21381598669867
 1  17.49781998219822  3.19300037003700 -3.46448448304830
 1  17.95117116431643  5.44446566406641  0.55072673687369
 1  18.71591911421142  5.69003315551555 -1.14708162256226
 1  17.12027357825783  6.21662116521652 -0.88327238853885
 1 -5.12895819721972 -7.95752518561856  0.21951841414141
 1 -6.64664909520952 -6.79460654725473  0.55437894539454
 1 -4.99601777037704 -6.85936751235123  1.74151860846085
 8 -7.92107969956996  6.84254075487549 -0.33598138213821
 1 -9.22662095919592  6.22742838773877 -1.70578626142614

