%nproc=4
%Mem=4GB
# td=(NStates=1) iop(3/107=0140000000,3/108=0140000000) iop(3/107=0140000000,3/108=0140000000) CAM-B3LYP/6-31G(d,p) 

TD

0 1
12 -5.47531903850385  1.28690356465647  0.09109771497150
 6 -5.03425381258126 -2.12145060836084 -0.36329319611961
 6 -3.40138892799280  1.10622090689069  2.78427380068007
 6 -6.13797259295930  4.62056532073207  0.59929013781378
 6 -7.99376514361436  1.09796064676468 -2.46563423692369
 7 -4.32893714701470 -0.29726791859186  1.01285262406241
 6 -4.27775130263026 -1.58510221182118  0.68946129572957
 6 -3.17035015951595 -2.33739704250425  1.53208757245725
 6 -2.80895406640664 -1.29405229612961  2.60257681378138
 6 -3.50426785418542 -0.00662329002900  2.07459204440444
 6 -3.43481652105211 -1.63620706210621  4.00598329772977
 6 -1.96076126932693 -2.68836624592459  0.58951425692569
 6 -0.89366100960096 -3.54217179777978  1.32470605860586
 6  0.22761786228623 -3.89519336003600  0.67858605330533
 8  0.41167123142314 -3.58999631323132 -0.47490372457246
 8  1.07975482118212 -4.67907752505251  1.48274288158816
 7 -4.82376319261926  2.68667804470447  1.45844607630763
 6 -3.99895198499850  2.38342576427643  2.42074267756776
 6 -3.81743124682468  3.66490499269927  3.23156371257126
 6 -4.50834138683868  4.59688121642164  2.50321959325933
 6 -5.20087619181918  3.97574566976698  1.46644273657366
 6 -2.75233059615962  3.88436581238124  4.30041423082308
 6 -4.67623415401540  6.01418883938394  2.85375488028803
 8 -4.12540258825883  6.58778666666667  3.89607350725072
 7 -6.81145494539454  2.62926282208221 -0.69186084238424
 6 -6.91612432723272  4.01452106930693 -0.37755944464446
 6 -7.95168035443544  4.59468619341934 -1.24775888538854
 6 -8.47807726102610  3.62372930283028 -2.06733567796780
 6 -7.76679557005701  2.37261327012701 -1.73763971047105
 6 -8.39771276217622  5.96040594999500 -1.15655516431643
 6 -9.52302666596660  3.68137853605361 -3.10426505930593
 6 -8.90530198389839  4.21258940514051 -4.47502390639064
 7 -6.28376679567957 -0.12380739843984 -1.17600269226923
 6 -7.32562209180918  0.07277120852085 -2.15174938563856
 6 -7.67195470267027 -1.36913861746175 -2.60177269986999
 6 -6.76954650345034 -2.16853642544254 -1.96653281898190
 6 -5.99469788518852 -1.40347391249125 -1.02501863226323
 6 -8.60625608340834 -1.73372349834984 -3.71269816601660
 6 -6.16942060916092 -3.57012259615962 -2.08261181628163
 8 -6.62977737323732 -4.58375607400740 -2.68095436053605
 6 -5.05805436753675 -3.58036608920892 -0.92474479427943
 6 -5.45427290469047 -4.68465390649065  0.10721439323932
 8 -5.84205997759776 -4.40333934203420  1.18454481788179
 8 -5.07725742394239 -5.82681387778778 -0.32415556015602
 6 -5.39339690389039 -6.89982183548355  0.59808163796380
 6  2.35621659485949 -5.04677579777978  0.72529648404840
 6  3.44823935893589 -4.00207036793679  1.03037093689369
 6  4.01197058725873 -3.20796366646665  0.16586022102210
 6  3.62725706460646 -3.22112705400540 -1.29359886438644
 6  5.19450587638764 -2.39085413301330  0.59932373117312
 6  6.49306417771777 -2.72886581178118  0.02471393879388
 6  7.66781210481048 -1.90448980448045  0.58249393989399
 6  9.01993281458146 -2.12887772137214 -0.14434221672167
 6  9.58202458415842 -3.54020466086609  0.10633717601760
 6  10.06660723982398 -0.88739897729773  0.28677119261926
 6  11.37709501190119 -0.93461306820682 -0.37891665786579
 6  12.23745143374337  0.28364299179918 -0.01039419181918
 6  13.61953440924092  0.45223009290929 -0.75783054625463
 6  14.43428172717272 -0.81970137273727 -0.68459261016102
 6  14.24252019161916  1.74801097269727 -0.20025928072807
 6  15.52496668706871  2.24561258945895 -0.92953794879488
 6  16.18172075647565  3.47708246104610 -0.44349496269627
 6  17.40262551165117  3.96160400200020 -1.13922785798580
 6  17.17329991969197  4.13069796149615 -2.69561178537854
 6  17.84965437153715  5.25343060836084 -0.51868132703270
 1 -2.73784950775077  1.20797507290729  3.55859632803280
 1 -6.32109008780878  5.72809819021902  0.55259425112511
 1 -8.76516692389239  1.15633593649365 -3.35773125192519
 1 -3.58809987478748 -3.33019833523352  1.88109617041704
 1 -1.80589771367137 -1.17635529712971  2.71181245734573
 1 -3.05692547164716 -2.65445860706071  4.47378092209221
 1 -3.22660345304530 -0.93804370877088  4.78582061186119
 1 -4.36949946164617 -1.78457753865387  4.01658560906091
 1 -2.31954726842684 -3.22097161446145 -0.23362398619862
 1 -1.50512834523452 -1.84219333563356  0.16206432803280
 1 -0.65715114861486 -3.13790508610861  2.32504672337234
 1 -1.32967768936894 -4.39476660786079  1.66250804880488
 1 -1.84113422722272  3.41443096749675  3.89074498419842
 1 -2.64949593969397  5.01076828282828  4.33375963366337
 1 -3.00943393839384  3.46747774527453  5.35560056605661
 1 -5.44337740164016  6.55636983138314  2.24810013141314
 1 -10.08630776427643  2.92341299839984 -3.20137338903890
 1 -10.34426522442244  4.38751259535954 -2.83685397609761
 1 -9.52710251005101  4.43234164816482 -5.22253745604560
 1 -8.31804131353135  5.16135588098810 -4.42272222722272
 1 -8.55808565756575  3.47309666846685 -4.99174909970997
 1 -8.18245583518352 -1.46220676357636 -4.75108610691069
 1 -8.80303128612861 -2.87531093619362 -3.82974561156116
 1 -9.52909298879888 -1.22960978437844 -3.45003190989099
 1 -4.09877723512351 -3.80283511011101 -1.46021930883088
 1  2.77479861286129 -5.84261220422042  1.32517847474748
 1  2.16106685008501 -5.24839181528153 -0.34247769736974
 1  3.43934605690569 -4.02213149494950  1.96905191279128
 1  2.69578456515652 -3.55812143324332 -1.47753029402940
 1  3.77867248054805 -2.27451101040104 -1.60793326382638
 1  4.36160833483348 -3.83925765496550 -1.83832275817582
 1  5.28245828672867 -1.31484790879088  0.31932381588159
 1  5.37235576287629 -2.25576720912091  1.77696257655766
 1  6.69487701440144 -3.76664985708571  0.23680156415642
 1  6.49009917031703 -2.78651626062606 -1.14386498199820
 1  7.31748067936794 -0.83577690279028  0.37763500900090
 1  7.74599670257026 -1.87161374447445  1.72818720402040
 1  8.73841795109511 -2.15072334753475 -1.25113845194519
 1  9.02912743144314 -4.34979375077508 -0.25371916431643
 1  10.60997033783378 -3.55504970707071 -0.56418653215322
 1  9.71525058645865 -3.74968606010601  1.16992743544354
 1  9.31525067566757  0.05875160136014  0.04049941374137
 1  10.44826492399240 -0.94892142604260  1.29550909090909
 1  12.04770991229123 -1.73580361226123 -0.08999337253725
 1  11.15217130383038 -0.97737064196420 -1.55192652625263
 1  11.57089812331233  1.16333076227623 -0.08426798199820
 1  12.35095991929193  0.42560375177518  1.13999227942794
 1  13.56025282598260  0.57199163146315 -1.86707894659466
 1  14.97003634193419 -0.71884009670967  0.30806648664866
 1  13.78924449544954 -1.71401041734173 -0.91396771827183
 1  15.17951894029403 -0.99273247144715 -1.35557244974497
 1  13.40142833703370  2.64419903900390 -0.08576036373637
 1  14.62327902820282  1.61005129432943  0.83871108500850
 1  16.21790344614461  1.40715932863286 -0.76244273497350
 1  15.29565514891489  2.22302621542154 -2.02080346004600
 1  15.57079848444845  4.46636201420142 -0.44944694279428
 1  16.39654242434244  3.46761340274027  0.70935083548355
 1  18.04178786018602  3.13885537673767 -0.94434351395140
 1  16.23733445384538  4.75555208410841 -2.84718707850785
 1  18.07001292479248  4.79190870417042 -3.26820142524252
 1  16.90944114431443  3.12680375037504 -3.05191322592259
 1  17.95839188638864  5.05153637113711  0.59448111231123
 1  18.69262678497850  5.77446159835984 -1.14245115951595
 1  16.96920847174717  5.85691519461946 -0.67011107240724
 1 -4.93169847124712 -7.78648808190819  0.27111357365736
 1 -6.40087451775177 -7.00021710831083  0.76412992049205
 1 -4.93582175077508 -6.63089466506651  1.61336579317932
 8 -7.91759935153515  6.79360586138614 -0.34265204920492
 1 -9.32519081618162  6.17500314521452 -1.70099578237824

