%nproc=4
%Mem=4GB
# td=(NStates=1) iop(3/107=0140000000,3/108=0140000000) iop(3/107=0140000000,3/108=0140000000) CAM-B3LYP/6-31G(d,p) 

TD

0 1
12 -5.50431193779378  1.28123299759976  0.20181878707871
 6 -4.94917530473047 -2.20469893319332 -0.32574944174417
 6 -3.38023681278128  1.21770205500550  2.71277665096510
 6 -6.15508430413041  4.64832809700970  0.59107931673167
 6 -7.96527229432943  1.19739058975898 -2.41760943444344
 7 -4.29566381968197 -0.23017120892089  1.04112545134513
 6 -4.29063259075908 -1.58817251885189  0.70378272787279
 6 -3.26177930243024 -2.31305460826083  1.58533289698970
 6 -2.94597776877688 -1.30708359925993  2.72995955205521
 6 -3.56056348374837 -0.09323195089509  2.10355494069407
 6 -3.50850388978898 -1.87038047944794  3.96015871527153
 6 -2.00577577077708 -2.66088349764977  0.62159746524652
 6 -1.07009865336534 -3.54579215981598  1.40776436443644
 6  0.26754185468547 -3.82520636133613  0.60531872657266
 8  0.41005106940694 -3.27024433803380 -0.55840207440744
 8  1.08458530423042 -4.79409902720272  1.16430103740374
 7 -4.94132494879488  2.64442381928193  1.44616484818482
 6 -3.96814890469047  2.44996241794179  2.49604020732073
 6 -3.76812631633163  3.67157565976598  3.15653620982098
 6 -4.54249480218022  4.68809033733373  2.48664793609361
 6 -5.25920202440244  3.96290438563856  1.33666975927593
 6 -2.80585594869487  3.89413678947895  4.32071626102610
 6 -4.70729726032603  6.09035645614561  2.94605411021102
 8 -3.97508755675568  6.61806969496950  3.85394929482948
 7 -6.90054385428543  2.56599649544955 -0.68633028932893
 6 -6.94167688248825  3.92045166236624 -0.32637432613261
 6 -7.91889707610761  4.62647937273727 -1.22099620912091
 6 -8.45231468476848  3.61072800270027 -2.11933087748775
 6 -7.78952784328433  2.44927093589359 -1.72648859535954
 6 -8.36220921182118  5.95749565896590 -1.13276278507851
 6 -9.56080044334434  3.81822222042204 -3.16832146494649
 6 -8.87425887958796  4.07281542774277 -4.57199360336034
 7 -6.39772819181918 -0.17504252195220 -1.03130822282228
 6 -7.30456998659866 -0.02519858845885 -2.00826503720372
 6 -7.50231773897390 -1.25867757135714 -2.66209873247325
 6 -6.57046659545955 -2.19047861966197 -2.13411957765777
 6 -5.95430384578458 -1.43359692479248 -1.07621375177518
 6 -8.52028748654865 -1.45946607260726 -3.80306720292029
 6 -6.20038370547055 -3.57246283018302 -2.01345490059006
 8 -6.65713010851085 -4.59827752615262 -2.60100636573657
 6 -5.08491705380538 -3.59732778537854 -0.82228454825483
 6 -5.38066554395439 -4.75566100720072  0.15855952775278
 8 -5.82755852745275 -4.56122513061306  1.24962132553255
 8 -5.03047274547455 -5.91291248764876 -0.36133927852785
 6 -5.37762532673267 -7.04403625692569  0.49868169796980
 6  2.31841281448145 -5.04167528772877  0.50315426982698
 6  3.38376291129113 -4.10269042994299  0.92123002280228
 6  4.17536692689269 -3.34821769186919  0.10840447544754
 6  3.78369270817082 -3.20440538183818 -1.44547405190519
 6  5.25867229302930 -2.46700174777478  0.62335613441344
 6  6.59730460176018 -2.83455638083808 -0.03095162776278
 6  7.64234955855586 -1.80324968046805  0.51736742724272
 6  9.05560638193819 -1.88246307990799 -0.08286606910691
 6  9.57598398009801 -3.28369901030103  0.22209875217522
 6  10.01880245934593 -0.91642187958796  0.48104061956196
 6  11.39177648004801 -0.96549615651565 -0.22350111631163
 6  12.28544623322332  0.23511813931393  0.13528037563756
 6  13.63295575137514  0.36379124902490 -0.49012377557756
 6  14.60470876987699 -0.85012441504150 -0.17926207710771
 6  14.30366630623062  1.78400457205721 -0.09035829062906
 6  15.46231042144214  2.16874490269027 -0.96896189118912
 6  16.04189677407741  3.45729048184818 -0.65869648284828
 6  17.34031928102810  3.98267610921092 -1.40192412761276
 6  17.03344593429343  4.06019091079108 -2.91371359555956
 6  17.76751615771577  5.32760802610261 -0.74098355725573
 1 -2.75444116691669  1.15590986638664  3.61787225562556
 1 -6.54235221402140  5.68398377877788  0.61815080678068
 1 -8.75558596579658  1.13252355525553 -3.13303878267827
 1 -3.72161322612261 -3.25328064346435  1.93061112191219
 1 -1.92575969986999 -1.10542820442044  2.87554883098310
 1 -2.99838961806181 -2.67839100030003  4.35738928292829
 1 -3.34569536223622 -1.14226413081308  4.83638566836684
 1 -4.57342985468547 -1.85359444034403  3.79466341684168
 1 -2.50749606330633 -3.19490900820082 -0.17797842164216
 1 -1.46808464086409 -1.71486060236024  0.47747586918692
 1 -1.02523795729573 -3.13315461106111  2.35287950665067
 1 -1.44812953455346 -4.54312144334433  1.82397419541954
 1 -1.71613172697270  3.40514003840384  3.93578948864887
 1 -2.81298228832883  5.05470267626763  4.51887814551455
 1 -2.98921191619162  3.37045804330433  5.45512051805181
 1 -5.51756482038204  6.62057625202520  2.40436575797580
 1 -10.11461059455945  2.99290994809481 -3.23921717341734
 1 -10.15989678757876  4.60629447354735 -2.83694398509851
 1 -9.84854465426543  4.40721913591359 -5.00255545784578
 1 -8.24953446284628  4.96998674407441 -4.41243119811981
 1 -8.24788463746374  3.18883824262426 -4.65523544834483
 1 -8.23469105870587 -0.90639118201820 -4.63384438273827
 1 -8.51838282128213 -2.43721712681268 -4.09349198619862
 1 -9.68371845134513 -1.33958078147815 -3.82337924462446
 1 -4.08965632303230 -3.83946877347735 -1.24967825472547
 1  2.52929406240624 -6.10341828482848  1.03947990489049
 1  2.32202294569457 -5.06644362046205 -0.52244569416942
 1  3.64610673297330 -4.17653693549355  1.81108611621162
 1  2.68755374207421 -2.96608222932293 -1.42398493949395
 1  4.24562917621762 -2.28530208950895 -1.83440591109111
 1  4.17055922992299 -4.11454518371837 -2.03170209610961
 1  4.99317935883588 -1.40740716471647  0.72596447994799
 1  5.47730625792579 -2.57045867826783  1.68825370567057
 1  6.87617514421442 -3.80982417451745  0.20928881288129
 1  6.44343450385038 -2.57648525752575 -0.95713630913091
 1  7.12147107840784 -0.67249057415742  0.28641588708871
 1  7.73097520042004 -1.77629421252125  1.68946333163316
 1  8.82703681298130 -1.88977725292529 -1.13553689178918
 1  8.89323384208421 -4.19698847024702 -0.30029382178218
 1  10.67731707250725 -3.48432263436344 -0.33040315381538
 1  9.95126418781878 -3.49497058855886  1.20729117181718
 1  9.62764191479148  0.25798152435244  0.30461582538254
 1  10.03937403490349 -0.89229576347635  1.68697823782378
 1  11.97469261056106 -1.87645767766777  0.01902752955295
 1  11.13923000970097 -1.13015592049205 -1.29529086268627
 1  11.78677971147115  1.16602103130313  0.02669311411141
 1  12.40183500680068  0.16698789018902  1.18681696189619
 1  13.62268906960696  0.37418185048505 -1.60101233993399
 1  14.91614095239524 -0.71515972867287  0.97528320832083
 1  14.31200677167717 -1.81911092739274 -0.33582990449045
 1  15.44420540894090 -0.84140733893389 -0.78199509200920
 1  13.46580477467747  2.48406302540254 -0.06218800650065
 1  14.59275597589759  1.80894118331833  0.99893710761076
 1  16.20066172197220  1.30628924162416 -0.99023551425142
 1  15.12356794019402  2.07306121892189 -2.17725910561056
 1  15.25267667226723  4.22280765876588 -0.57736973507351
 1  16.25040781088109  3.37066370777078  0.55895579597960
 1  18.00327400880088  3.28203969516952 -1.19025810541054
 1  16.35699642004200  4.68175470437044 -3.22661502130213
 1  17.94507043054305  4.18537805110511 -3.70121472657266
 1  16.61042124232423  3.01048211821182 -3.39364739933993
 1  17.93360940814081  5.19122033953395  0.42135379957996
 1  18.71928945124512  5.61162531473147 -1.27100401480148
 1  16.86367791869187  6.16315581868187 -0.74142820412041
 1 -5.14041934333433 -8.03980341344134 -0.10023356105611
 1 -6.34891932223222 -7.15346243284328  0.73255676317632
 1 -4.94358252685269 -6.84629620522052  1.47253170977098
 8 -7.87165475707571  6.82254875567557 -0.36023380738074
 1 -9.05672396949695  6.49946559145915 -1.90747643044304

