%nproc=4
%Mem=4GB
# td=(NStates=1) iop(3/107=0140000000,3/108=0140000000) iop(3/107=0140000000,3/108=0140000000) CAM-B3LYP/6-31G(d,p) 

TD

0 1
12 -5.52856436303630  1.21626650095010  0.19822842804280
 6 -5.00926131333133 -2.18502696599660 -0.41434830163016
 6 -3.37546633573357  1.26044632943294  2.75492086538654
 6 -6.36151494719472  4.52024528872887  0.75839604840484
 6 -7.94858062516252  1.14055490619062 -2.47009468296830
 7 -4.34476873017302 -0.27235542734273  1.09073041184118
 6 -4.30097362486249 -1.61670537213721  0.69122147174717
 6 -3.17225034953495 -2.23718702150215  1.54868923262326
 6 -2.92029520052005 -1.31448433933393  2.70835739183918
 6 -3.52506993439344 -0.05431805950595  2.16798138333833
 6 -3.46469950935094 -1.67532097349735  4.01282398179818
 6 -1.84066926012601 -2.60402781208121  0.61791709720972
 6 -0.98257990149015 -3.61012859345935  1.35292888088809
 6  0.24841994249425 -4.03072691339134  0.61623981868187
 8  0.46367643194319 -3.54896220982098 -0.46671290549055
 8  1.02443928962896 -4.82704232153215  1.30275488278828
 7 -4.95102591889189  2.60634001090109  1.55062529422942
 6 -3.98910099989999  2.50974839653965  2.54994559785979
 6 -3.83980348404840  3.71750025222522  3.23633418961896
 6 -4.62882343504350  4.64919644794479  2.60867013831383
 6 -5.36887299149915  3.93216131133113  1.60921701400140
 6 -2.92126748984899  3.96201357715772  4.31516570597060
 6 -4.69418594919492  6.08561598209821  2.97265677047705
 8 -4.11747179517952  6.54651253925392  3.89381328122812
 7 -6.91023482338234  2.54422431823182 -0.72980463676368
 6 -7.00945366016602  3.83161277847785 -0.33564525322532
 6 -7.94093928032803  4.54831155595560 -1.12084619411941
 6 -8.44146359965996  3.57027395729573 -2.13947289168917
 6 -7.69458834933493  2.44030003880388 -1.85247119361936
 6 -8.33942693359336  5.94106401580158 -1.11594110291029
 6 -9.39399376267627  3.93034343254325 -3.19668430123012
 6 -8.70730218391839  4.05550369656966 -4.57041344534453
 7 -6.28257667666767 -0.06959197689769 -1.10944603660366
 6 -7.31548107770777 -0.00401647024702 -2.15263947464746
 6 -7.50724823202320 -1.35030673427343 -2.75182770537054
 6 -6.61281082988299 -2.14809438123812 -2.10173633933393
 6 -5.92999141454145 -1.42874643974397 -1.13342947334733
 6 -8.53396885468547 -1.68605873187319 -3.82266916311631
 6 -6.12196586368637 -3.52488807270727 -2.05772932803280
 8 -6.56284067956796 -4.53289098749875 -2.65733199829983
 6 -5.03034159625963 -3.60631868446845 -0.89957227702770
 6 -5.36902437983798 -4.68380382148215  0.16688035983598
 8 -5.70203597519752 -4.38520752885289  1.30209657305731
 8 -5.27236693489349 -5.93394459085909 -0.38550169476948
 6 -5.67498506270627 -6.85161701500150  0.56450828062806
 6  2.20117109030903 -5.18816993719372  0.65169912431243
 6  3.29840437543754 -4.15993615451545  1.08488638843884
 6  3.97468685888589 -3.27523039313931  0.13870750575058
 6  3.76283062196220 -3.16074101540154 -1.38450795529553
 6  5.13923034883488 -2.44685973357336  0.65827962676268
 6  6.53772864416442 -2.71197412261226  0.00690215761576
 6  7.66665198879888 -1.79591894739474  0.58397408790879
 6  9.12704352565257 -1.94958979257926 -0.14184196669667
 6  9.56855323702370 -3.40717135753575  0.11109765206521
 6  10.03113369246925 -0.79668990639064  0.33979649514951
 6  11.34798210061006 -0.72961256815682 -0.35335410161016
 6  12.18996668526853  0.49529415691569  0.13365021262126
 6  13.56028848464846  0.53730860076008 -0.67914267746775
 6  14.45059335833583 -0.64148355095510 -0.56563071397140
 6  14.30156609620962  1.83744991659166 -0.24767402220222
 6  15.53775796619662  2.18430645884588 -0.90990598559856
 6  16.13517610201020  3.53076782958296 -0.58306892009201
 6  17.38226347544754  3.86097393899390 -1.23145708090809
 6  17.40502309200920  3.77124201590159 -2.77051927612761
 6  17.96164557065707  5.14933019831983 -0.74968442734273
 1 -2.72257798059806  1.24797907330733  3.57962843124312
 1 -6.47286526532653  5.58485386578658  0.69527851955195
 1 -8.55504591179118  1.37004730763076 -3.38628410721072
 1 -3.45021608640864 -3.25536085148515  1.83547160796080
 1 -1.78071519541954 -0.98840650225023  2.79685096119612
 1 -3.02230200930093 -2.85721888308831  4.39988353235324
 1 -3.25003579627963 -0.96113601800180  4.67709973977398
 1 -4.61620413211321 -1.87899698059806  4.01631558205821
 1 -2.24570988468847 -3.23072258955896 -0.29557018081808
 1 -1.29390722312231 -1.76422553885388  0.26827494909491
 1 -0.57232266576658 -3.14022531813181  2.39898411711171
 1 -1.64122884448445 -4.45898302950295  1.63476527452745
 1 -1.81596170997100  4.14031355575558  4.15825173487349
 1 -3.26489747984799  4.81553875987599  5.18695495319532
 1 -3.02914590959096  2.86858785628563  5.04464947094709
 1 -5.22397546144614  6.81584577897790  2.30650597199720
 1 -10.12167130063006  3.00585124222422 -3.48950220192019
 1 -9.98692949084909  4.67515135923592 -2.94344463516352
 1 -9.28828862866287  4.22813122712271 -5.37142234453445
 1 -7.97075658505851  5.07172691809181 -4.56244619961996
 1 -8.15209505850585  3.24778413721372 -4.70753067786779
 1 -8.47209479907991 -0.89234977787779 -4.57932893119312
 1 -8.40163114611461 -2.82861626672667 -4.20956359335934
 1 -9.52543262276228 -1.64871169456946 -3.44768167486749
 1 -4.14015137253725 -3.99768459505951 -1.29518280518052
 1  2.38033916691669 -6.31357930093009  1.01934789168917
 1  2.04949569296930 -4.89664664076408 -0.53325677527753
 1  3.54529665196520 -3.84126340814081  2.24888989658966
 1  2.71782676937694 -3.58142376347635 -1.49476201720172
 1  3.70040465376538 -2.17858141744174 -1.69845231573157
 1  4.62845501950195 -3.91788551775178 -1.99205813171317
 1  4.71160120102010 -1.50908733273327  0.47274915841584
 1  5.22525105240524 -2.47752938533853  1.65325020532053
 1  6.70594812151215 -3.98259145124512  0.31733961796180
 1  6.54267442784278 -2.38882649164916 -1.15173576907691
 1  7.30448938023802 -0.74351767686769  0.44481172667267
 1  7.90357246014602 -1.99228581168117  1.58935332063206
 1  8.89021313061306 -1.95454372957296 -1.27565090319032
 1  8.97112163086309 -4.13756252765276 -0.43795758815882
 1  10.38535787658766 -3.55291949404941 -0.49611972547255
 1  9.74247330873087 -3.62582367386739  1.18571901460146
 1  9.56421557215722  0.26758248444845  0.03598896269627
 1  10.24015411291129 -0.79027556145615  1.42662220222022
 1  11.92164730603060 -1.77201723362336 -0.32277665086509
 1  11.27237332403240 -0.60860376527653 -1.31625295889589
 1  11.60349138263826  1.42727715691569  0.14561500630063
 1  12.52084690799080  0.37205839723972  1.13715199539954
 1  13.23870067076708  0.58021245354535 -1.69892213091309
 1  14.62018135643564 -0.95130334303430  0.55536121612161
 1  14.01028659965997 -1.63398241454145 -1.16780310181018
 1  15.51230221862186 -0.50239343754375 -0.89490638313831
 1  13.47634582878288  2.59521414051405 -0.29359114681468
 1  14.44619131943194  1.85644593379338  0.86503371727173
 1  16.42193384918492  1.47221583428343 -0.68882537323732
 1  15.29233481688169  2.23632754555455 -2.03257463716372
 1  15.30355175977598  4.28891426942694 -0.88210020812081
 1  16.35890866096610  3.53314995639564  0.35651555195520
 1  18.16960064146415  3.00133162436244 -1.07409648924893
 1  16.64695541594159  4.55246177507751 -3.03754611441144
 1  18.32560848434844  4.10315982928293 -3.26581118621862
 1  17.34005420562056  2.79942101210121 -3.24733276787679
 1  18.05376142334233  5.25161637913791  0.39350101430143
 1  18.96741426372637  5.25886003820382 -1.28416533093309
 1  17.34783633453345  6.09613911701170 -1.10684474577458
 1 -5.64672997439744 -7.96479591269127  0.08253471577158
 1 -6.65978040834083 -6.82419950655066  0.90052355985599
 1 -4.96555472407241 -6.82480405600560  1.44803926052605
 8 -7.80488808040804  6.73266976777678 -0.43367115111511
 1 -9.20058835593559  6.15123076797680 -1.87016269906991

