%nproc=4
%Mem=2GB
# td=(NStates=1) iop(3/107=0140000000,3/108=0140000000) iop(3/107=0140000000,3/108=0140000000) CAM-B3LYP/6-31G(d,p) 

TD

0 1
12 -6.67057963006301  0.63980312441244  0.17921554105411
 6 -4.49655676217622 -2.05435385718572  0.55801607860786
 6 -4.16443825922592  2.79394102720272  0.98128100970097
 6 -8.82062476717672  3.27088111221122 -0.26138564026403
 6 -9.32108020562056 -1.72177520712071 -0.68702876157616
 7 -4.66586165806581  0.33383278097810  0.65900493259326
 6 -4.07269453505351 -0.88267797459746  0.70433098849885
 6 -2.57504092269227 -0.56842860206021  0.97813987628763
 6 -2.70495046084608  0.91790193899390  1.14388655115512
 6 -3.96323258615862  1.43648373357336  0.86507128182818
 6 -2.19602588828883  1.37076887278728  2.48599316211621
 6 -1.60489923832383 -1.07878044144414 -0.04234290799080
 6 -0.12395051335134 -1.26643835043504  0.28506758025803
 6  0.79501058025803 -1.58603584048405 -0.77525569936994
 8  0.82354242234223 -1.24525713821382 -1.94300529072907
 8  1.84698498509851 -2.25881618021802 -0.18894381688169
 7 -6.40075181738174  2.61965233523352  0.12998674657466
 6 -5.38513907480748  3.31270991419142  0.59062535873587
 6 -5.58230244544454  4.81424110891089  0.60380524912491
 6 -6.97641835523552  4.89800589108911  0.26310289358936
 6 -7.53429513341334  3.47387619601960 -0.08864403300330
 6 -4.63968888918892  5.85069249974997  1.06251391939194
 6 -7.78981054235423  6.11046796689669 -0.03551402770277
 8 -7.45261917811781  7.24382599919992  0.29641749854986
 7 -8.77716126962696  0.79367022622262 -0.35834848394839
 6 -9.41648532093209  1.91124585988599 -0.39515056735674
 6 -10.85371200150015  1.73656352745275 -0.74242002320232
 6 -10.95934029152915  0.19473037743774 -0.81269212471247
 6 -9.72878454175417 -0.31959012221222 -0.62227430413041
 6 -11.88271504680468  2.59248544164416 -0.72984763556356
 6 -12.31139425992599 -0.43755731803180 -1.14784291799180
 6 -12.50973783588359 -0.69150131533153 -2.75992878757876
 7 -6.94512099499950 -1.27928048934894 -0.19402204670467
 6 -8.07911057265727 -2.21772176887689 -0.45636883488349
 6 -7.56119370447045 -3.64714203660366 -0.50211122122212
 6 -6.19369499069907 -3.58298745964596 -0.07166542714271
 6 -5.81251754045404 -2.09382819731973  0.10532671697170
 6 -8.49448797229723 -4.74041141894189 -0.70547336323632
 6 -5.10428663316332 -4.44712051015101  0.04944296999700
 8 -4.98313006170617 -5.57438797709771  0.08051855845585
 6 -3.92949667506751 -3.32876343554355  0.44789943714371
 6 -3.14781829272927 -3.79042521802180  1.78660837383738
 8 -3.68096333643364 -3.81902863766377  2.81364003380338
 8 -1.90791246614661 -3.92816912221222  1.55770570977098
 6 -1.29590811291129 -4.05499058915892  2.97066149134913
 6  2.96599849264927 -2.59056423332333 -1.24199544364436
 6  4.03584735213521 -1.53525052615262 -0.94852038433843
 6  5.15834659005901 -1.22771964336434 -1.63996019761976
 6  5.17572155595560 -1.82300543524352 -3.01670865306531
 6  6.17520134473447 -0.19142679557956 -1.32622918141814
 6  7.40078877287729 -0.86760254235424 -0.83844058135814
 6  8.57894045434543  0.18946458105811 -0.57485596609661
 6  9.82397548694870 -0.40815773607361  0.19817151145114
 6  9.40475799209921 -0.75850466516652  1.28525289408941
 6  10.86909923992399  0.66508136233623  0.14841968036804
 6  12.22307757825783  0.07635894309431  0.34670298149815
 6  13.35189673227323  1.01919919461946  0.49307220562056
 6  14.77085342054206  0.28202148024802  0.76056071817182
 6  15.09294428252825 -0.31350363086309  1.92695261926193
 6  15.86663629202920  1.40222512451245  0.40532373767377
 6  17.14721419951995  0.86826205060506 -0.04451132503250
 6  18.15403495089509  1.91645883708371 -0.30466061286129
 6  19.66142834393439  1.38101659645965 -0.46089617331733
 6  19.46525632693269  0.54437986828683 -1.64053984518452
 6  20.70892806170617  2.59795121312131 -0.63493858975898
 1 -3.22669330763076  3.44742599359936  1.17306670837084
 1 -9.79474345684569  3.93273235833583 -0.50537417131713
 1 -10.06846933853385 -2.28303870317032 -1.10332315821582
 1 -2.16103862066207 -1.16015363316332  1.83860390869087
 1 -1.97190652925293  1.29845032123212  0.66963341674167
 1 -0.87750913461346  1.20767908230823  2.44667537863786
 1 -2.31389956385639  2.31020959735974  2.66004212201220
 1 -2.93224555705571  0.65052293759376  2.96648251735173
 1 -1.85968498879888 -2.05248652165217 -0.44500228702870
 1 -1.81953712271227 -0.09844131703170 -1.08681847264726
 1  0.33873187148715 -0.09786121942194  0.80209607480748
 1 -0.04515823562356 -1.83420975477548  1.02587281938194
 1 -3.66035056545654  5.99800762866287  0.40310526822682
 1 -4.90521080168017  6.83509618551855  0.75234214031403
 1 -4.14833586178618  5.47654661566157  2.00225799809981
 1 -8.81995500960096  6.17932304150415 -0.03725010081008
 1 -12.31325087868787 -1.39418028552855 -0.62241666886689
 1 -13.19732594759476  0.12325872567257 -0.96597423382338
 1 -13.42518034113411 -1.70353246864687 -2.60807792489249
 1 -12.71908887268727  0.06291371287129 -3.37966013551355
 1 -11.60301712611261 -1.37031034803480 -3.20229683708371
 1 -8.88285746904690 -4.73862041764176 -1.83067529552955
 1 -8.12662787738774 -5.90898091069107 -0.95721537343734
 1 -8.85087236723672 -4.75199716091609  0.27009161866187
 1 -3.19201878327833 -3.29176290119012 -0.46783509030903
 1  3.24225584098410 -3.51513878767877 -0.86768248534854
 1  2.67034132293229 -2.51546746174617 -2.02519275457546
 1  3.87928525622562 -0.86877962636264  0.01161476307631
 1  4.44005706270627 -1.46208968146815 -3.93724383938394
 1  6.32255583398340 -1.40743941934193 -3.60116134003400
 1  5.15441926932693 -2.64118673297330 -3.26905108890889
 1  6.19432985488549  0.45348068546855 -1.86599921712171
 1  5.94721983138314  0.34934048184819 -0.72141640504050
 1  7.28945012391239 -1.32057025412541  0.24508623022302
 1  7.70401579998000 -1.41797058735874 -1.47330680658066
 1  9.11983411481148  0.40610120492049 -1.62377516281628
 1  8.44392289038904  0.99962515071507 -0.00068436003600
 1  10.30056250335033 -0.95902334603460 -0.27310446804680
 1  8.30937318161816 -1.24972378807881  1.17523588438844
 1  10.28652472187219 -1.14695857705771  2.00460235163516
 1  9.21045425702570 -0.28397962036204  1.78187949304930
 1  10.82601623942394  1.01135389528953 -0.56552372397240
 1  10.86578632523252  1.15650452605261  1.02006588688869
 1  12.06273381558156 -0.69213165266527  1.54728841214121
 1  12.55323747774777 -0.94573279387939 -0.42930592809281
 1  13.47989285928593  1.83553309830983 -0.27949685428543
 1  13.16278832363236  1.78467271857186  1.12266805620562
 1  14.80131155695570 -0.65019253525353 -0.07447563876388
 1  14.91957185708571  0.43425382088209  2.90559333233323
 1  14.25564283778378 -0.85736340824082  2.25091258935894
 1  15.74450148324832 -1.03090667376738  1.81383786148615
 1  15.64040517541754  2.06244623802380 -0.14892486718672
 1  15.99054308690869  1.96236577207721  1.50883920712071
 1  17.49126044114411  0.32114528512851  0.78189837653765
 1  16.67727525172517  0.31611978117812 -0.88152953035303
 1  17.85795080218022  2.56601314911491 -0.94042703100310
 1  18.19427942404241  2.42008591549155  0.57306397689769
 1  20.00189275047505  1.10255310151015  0.39875322612261
 1  19.41106942494249  1.13246829642964 -2.18169029422942
 1  20.33355764576458  0.09430762896290 -1.81832596599660
 1  18.40233296029603 -0.04458217661766 -1.70923899859986
 1  20.99597637623762  3.38164774387439  0.05808656225623
 1  21.54255199549955  2.04072065476548 -1.01213392839284
 1  20.51704835773577  3.30621810901090 -1.93107790409041
 1 -0.41505713081308 -4.40658340774077  2.57037538553855
 1 -1.65348502950295 -4.83794106780678  3.58448908550855
 1 -1.37870188348835 -3.09738821592159  3.55561971517152
 8 -11.73505187948795  3.85165996519652 -0.90719253295330
 1 -12.81314182568257  2.05857709780978 -0.56267687268727

