%nproc=4
%Mem=2GB
# td=(NStates=1) iop(3/107=0140000000,3/108=0140000000) iop(3/107=0140000000,3/108=0140000000) CAM-B3LYP/6-31G(d,p) 

TD

0 1
12 -6.80439301140114  0.59146829092909  0.07301492099210
 6 -4.46215332183218 -1.99744816661666  0.37218749574958
 6 -4.22675449084908  2.90257189028903  1.06929981158116
 6 -8.91230393509351  3.18407243134313 -0.43010251195119
 6 -9.20638873647365 -1.64481751135113 -0.86727678637864
 7 -4.65662073397340  0.37718711641164  0.54174320642064
 6 -3.93814107970797 -0.82643235003500  0.65800635603560
 6 -2.50765418401840 -0.42287404660466  1.13940600290029
 6 -2.51084104990499  1.16827697649765  1.28495065756576
 6 -3.97410367326733  1.54497458265827  0.94014878957896
 6 -2.05327161286129  1.46453824972497  2.81587615041504
 6 -1.51154990339034 -0.72847541094109 -0.11792046574657
 6 -0.21338945724572 -1.30849255585559  0.46952602610261
 6  0.84240531973197 -1.49857709460946 -0.62926109990999
 8  0.65712578067807 -1.20580319281928 -1.88634962516252
 8  1.87273756035604 -2.10875117371737 -0.27462238473847
 7 -6.61476321852185  2.59763013301330  0.31572532043204
 6 -5.52194275517552  3.41401004420442  0.76036233243324
 6 -5.94140835603560  4.81097078187819  0.71983685228523
 6 -7.24351506490649  4.80065615611561  0.19002558585859
 6 -7.73044474837484  3.51318012641264 -0.09411458005801
 6 -4.75628054835483  5.78793622412241  0.97229489748975
 6 -8.03709527082708  6.00467738783878  0.15597512121212
 8 -7.66095001120112  7.06531814841484  0.62765062186219
 7 -8.68772232573257  0.74624548374837 -0.66789943904391
 6 -9.33545721812181  1.78879361466147 -0.57083813611361
 6 -10.78446507680768  1.51176104720472 -0.96722250345034
 6 -10.86269062656266  0.18342924732473 -0.99215007050705
 6 -9.60996265956596 -0.38218638183818 -0.89979205590559
 6 -11.83839061436144  2.45035122822282 -0.92956760756076
 6 -11.96423954445445 -0.55783934623462 -1.38742687638764
 6 -12.21237809990999 -0.85699786498650 -2.96424921962196
 7 -6.93334981788179 -1.37298986028603 -0.07502014651465
 6 -7.88503116471647 -2.18301829852985 -0.50530372837284
 6 -7.65709329442944 -3.70202752515251 -0.63874488458846
 6 -6.21860748194819 -3.62505166606661 -0.12037029762976
 6 -5.93058934763476 -2.18895771027103  0.11397758205821
 6 -8.39649817331733 -4.80872825062506 -0.82918573447345
 6 -4.98653485798580 -4.34527032513251  0.14476250195020
 8 -4.99940168886889 -5.65194573287329  0.09419992659266
 6 -3.86860058545855 -3.43025358455846  0.59284393159316
 6 -3.40425393629363 -3.76317249274928  1.96427614061406
 8 -3.76893213331333 -4.23246998179818  2.99142781258126
 8 -2.02855453035304 -3.41056736203620  1.95491543074307
 6 -1.40376889898990 -3.77888297839784  3.25824024922492
 6  3.06421831463146 -2.31827700460046 -1.13373461756176
 6  3.96806057345735 -1.27479448054805 -0.74160969326933
 6  4.90081083648365 -0.83857072847285 -1.69344554615462
 6  5.00446443024302 -1.29817295199520 -3.23885086728673
 6  6.18103192779278 -0.04438209110911 -1.22380893939394
 6  7.27683637763776 -0.83630941304130 -0.30498723602360
 6  8.45482804310431  0.16495212981298 -0.14282276277628
 6  9.67089017841784 -0.57654457475748  0.09300099439944
 6  9.59599711601160 -1.25382419711971  1.34152852165217
 6  10.93907623762376  0.53273812801280  0.04656949534953
 6  12.26938220872087 -0.10081877467747  0.04579289048905
 6  13.36947849044904  0.90418769346935 -0.00703780538054
 6  14.67814414961496  0.30648392649265  0.08851351345134
 6  14.91157614571457 -0.29830211071107  1.46008593259326
 6  15.88644827322732  1.32170707270727  0.06092929822982
 6  17.21346082418242  0.72255748014801 -0.21876875077508
 6  18.22088163556356  1.87499469066907 -0.34141428822882
 6  19.71305350645065  1.25559405420542 -0.33521360506051
 6  20.22665246654665  0.58150358065807 -1.86539233043304
 6  20.82439960886089  2.31149256725673 -0.06513160906091
 1 -3.46106674497450  3.23326457745775  1.29442884458446
 1 -9.79356333883388  4.11898098319832 -0.83320695459546
 1 -10.03336582818282 -2.19832023132313 -0.83464629052905
 1 -2.00765328212821 -1.11626924472447  2.21079112741274
 1 -1.95446478507851  1.80139061526153  0.92171862526253
 1 -1.31431281498150  0.76361467586759  3.17280799189919
 1 -1.95096327022702  2.72059063546355  2.72293841164116
 1 -3.06194852735273  1.19259714501450  3.61382725182518
 1 -1.88152717301730 -1.87515878887889 -0.74786257305731
 1 -1.69459462846285  0.34691321842184 -0.61735152595260
 1  0.35217321562156 -0.70632206550655  1.22165803100310
 1 -0.31102482228223 -2.26473280708071  1.15982621472147
 1 -3.95917044744474  5.43246107400740  0.48054301200120
 1 -5.22943322392239  6.73796647254725  0.73556046214621
 1 -4.55124615281528  5.99317827882788  2.17658543084308
 1 -9.01097411151115  6.03893900310031 -0.34724109990999
 1 -11.89039859345935 -1.51126199369937 -0.91280570777078
 1 -13.12129834483448  0.06086248604860 -1.34982261866187
 1 -12.92604042714272 -1.83355547094709 -3.18038515561556
 1 -12.62824978877888  0.00970839233923 -3.73249541904190
 1 -11.03690051445145 -1.20464378137814 -3.35474208160816
 1 -8.70905008830883 -5.04348090369037 -2.07174940294029
 1 -8.21573678827883 -5.82589260186019  0.01357170527053
 1 -9.65877315731573 -4.55344730593059 -0.64596998749875
 1 -2.93630321172117 -3.66295001990199 -0.07862616941694
 1  3.25019663506351 -3.28563583738374 -0.98545426252625
 1  2.61399568836884 -2.09563547854785 -2.33199343464346
 1  3.70975830353035 -0.71950469886989  0.31018462006201
 1  4.36621967896790 -0.86223969646965 -3.68859897489749
 1  6.20071364976498 -1.15980465586559 -3.25658688258826
 1  4.78413224062406 -2.35437805210521 -3.53104728852885
 1  6.57772819471947  0.64280961836184 -2.32084470167017
 1  5.63106821622162  0.64889043684368 -0.26108037143714
 1  6.91393257215722 -1.05993419051905  0.90047176877688
 1  7.72147754615462 -2.14952374267427 -1.29754923082308
 1  8.66580871227123  0.94974556935694 -0.87841062636264
 1  8.26294479257926  0.87126231443144  0.94938064646465
 1  10.09398184528453 -1.03891133483348 -0.92307946554655
 1  9.03338558285829 -2.19962877857786  1.23330169096910
 1  10.73190926032603 -1.42495637683768  1.72456434783478
 1  9.11413462506251 -0.69469069146915  2.22583388848885
 1  10.61189482728273  1.00090285018502 -0.78980615221522
 1  10.83755350195019  0.99022789838984  0.97838171847185
 1  11.90514805700570 -0.71847428692869  0.97057074037404
 1  12.47651980598060 -0.76256447704770 -0.83356635413541
 1  13.07095196519652  1.12185173017302 -1.06228513311331
 1  13.21618366316632  1.76936118741874  0.59312510191019
 1  14.79231065686569 -0.38418593459346 -0.77864605580558
 1  15.06788668856886  0.34696509200920  2.34497727072707
 1  13.79508678217822 -0.75134280618062  1.83194069216922
 1  15.88608564166417 -1.00724430753075  1.64713119081908
 1  15.58246938183818  2.30374036743674 -0.52833280798080
 1  15.78671270387039  1.97427696319632  1.14949327252725
 1  17.72444375947595 -0.08395522492249  0.32438262496250
 1  16.89440696489649  0.21944011321132 -1.28094947234723
 1  18.23364837193720  2.77408395619562 -1.37058004630463
 1  18.13294329042904  2.65577948484848  0.59721639213921
 1  20.14187674887489  0.16571941814181  0.27374072487249
 1  20.15507382538254  1.49407445704570 -2.77294942014202
 1  21.58466275627563  0.30996919511951 -1.62569670307031
 1  19.84856758375838 -0.25503322172217 -2.01960003470347
 1  20.40226700530053  2.48442802190219  1.12242299589959
 1  21.78728646894690  1.90628721142114  0.08979626462646
 1  20.64862151505150  3.31097858505850 -0.73312810911091
 1 -0.27632325742574 -3.64657740714071  3.22287063506351
 1 -1.70435011601160 -4.81005827952795  3.67910854745475
 1 -1.81135514881488 -3.33548202530253  4.05527968116812
 8 -11.49800817511751  3.66594139333933 -0.77470928462846
 1 -13.02715322682268  2.00637187728773 -1.30955156015602

