%nproc=4
%Mem=4GB
# td=(NStates=1) iop(3/107=0140000000,3/108=0140000000) iop(3/107=0140000000,3/108=0140000000) CAM-B3LYP/6-31G(d,p) 

TD

0 1
12 -5.60819232583258  1.22586746104610  0.24054265946595
 6 -5.04211459865987 -2.16523498679868 -0.30625749254926
 6 -3.42524131323132  1.09899018381838  2.76757213051305
 6 -6.08899769546955  4.66015928012801  0.60658086688669
 6 -7.94065983308331  1.18301915261526 -2.44382205570557
 7 -4.41377563086309 -0.30869906170617  1.11119245804580
 6 -4.33066659415942 -1.64259796139614  0.66684903450345
 6 -3.26992011651165 -2.42348565136514  1.55550991469147
 6 -2.98381155215522 -1.44003689458946  2.74813136923692
 6 -3.55947337473747 -0.12289491719172  2.15316990219022
 6 -3.60976401580158 -1.81904534593459  4.13056575597560
 6 -2.02107730093009 -2.85136254555456  0.76296160166017
 6 -0.91612325582558 -3.60595817641764  1.57375096309631
 6  0.25256035653565 -3.88169200990099  0.68381657635764
 8  0.33397346164616 -3.62345965956596 -0.44576081028103
 8  1.05588243394339 -4.71953157045705  1.38879348664866
 7 -4.87056787308731  2.65392476937694  1.38125835753575
 6 -4.05111720152015  2.33809123082308  2.41672227552755
 6 -3.69947945164516  3.61159966216622  3.25190574677468
 6 -4.48450900360036  4.66304783308331  2.64995426672667
 6 -5.16872297649765  4.02443053825383  1.39222531483148
 6 -2.83902926602660  3.75172254805481  4.41835602500250
 6 -4.52296882748275  6.06958437893789  2.96588609340934
 8 -4.02191223922392  6.64169205720572  3.94814871477148
 7 -6.89938373827383  2.60569046484648 -0.64985664196420
 6 -6.94134684948495  3.86194581178118 -0.26174786348635
 6 -7.85745093149315  4.64974169896990 -1.16332044154415
 6 -8.36640609390939  3.72294922482248 -2.09319826422642
 6 -7.78064695519552  2.41112712151215 -1.72100804730473
 6 -8.12652564346435  6.03473338273827 -1.30245975477548
 6 -9.33688805210521  3.88171857005701 -3.29292392519252
 6 -8.43482493619362  4.22324047024702 -4.58565496949695
 7 -6.32307072607261 -0.11659667736774 -1.17022211421142
 6 -7.30608013761376 -0.03803987258726 -2.04671888258826
 6 -7.58746625382538 -1.37075877947795 -2.69703222582258
 6 -6.64023357215722 -2.17033660546055 -2.07898406410641
 6 -5.99733814921492 -1.44370793589359 -1.11184731513151
 6 -8.54697015481548 -1.85881600760076 -3.78913580978098
 6 -6.31958562566257 -3.54754033793379 -2.04509806490649
 8 -6.64879927542754 -4.55886358475848 -2.61048731383138
 6 -5.14270283238324 -3.63594164676468 -0.85676799659966
 6 -5.32602007940794 -4.69429487058706  0.17230090189019
 8 -5.83938971057106 -4.60071908000800  1.33154951835184
 8 -4.98502820102010 -5.89728092449245 -0.38071121572157
 6 -5.32378994319432 -7.05907776107611  0.34537636743674
 6  2.28942991619162 -5.04693581378138  0.77597155155516
 6  3.36059059405941 -3.95678583948395  0.97443534333433
 6  3.98183757395740 -3.25423829392939  0.05879951495149
 6  3.71331567046705 -3.29966490779078 -1.43888339283928
 6  5.07392381818182 -2.29563461106111  0.45544934373437
 6  6.50522539383938 -2.60070299549955 -0.04664319691969
 6  7.58927425102510 -1.70306966246625  0.51817750825082
 6  8.94781560286029 -1.84002883648365 -0.16906468896890
 6  9.64755113681368 -3.28790943134313  0.12810935323532
 6  9.87634821392139 -0.65977621502150  0.23322583808381
 6  11.25737303970397 -0.78369797669767 -0.37424619081908
 6  12.18004569316932  0.38405303280328  0.10721756935694
 6  13.49631208700870  0.48114298419842 -0.69547431063106
 6  14.40330862986299 -0.73449285188519 -0.40252440334033
 6  14.22027796739674  1.83063923552355 -0.34184343914391
 6  15.42489668006801  2.21635966416642 -1.10017501250125
 6  16.09537212161216  3.51676642944294 -0.59809042224222
 6  17.38293354245425  3.82207004860486 -1.17698163336334
 6  17.30436302600260  4.02279717141714 -2.74797702190219
 6  17.98481788788879  5.14548981428143 -0.53656311521152
 1 -2.84326004880488  1.15136941234123  3.79193966236624
 1 -6.37170514931493  5.59934531493149  0.56890588228823
 1 -8.42827323452345  1.18472877577758 -3.22460793959396
 1 -3.83492455725573 -3.45571088648865  1.97445550635064
 1 -1.94329145304530 -1.24949261086109  3.05770704680468
 1 -3.07347712681268 -2.72525568676868  4.57327087108711
 1 -3.44756554925493 -0.94770467486749  4.65370740054005
 1 -4.66527903960396 -1.78636771767177  3.97727167766777
 1 -2.35314062776278 -3.63660317761776 -0.07022764656466
 1 -1.49405723812381 -2.02378149444944  0.21260938253825
 1 -0.73310874437444 -2.83430472607261  2.27851206990699
 1 -1.40657537913791 -4.39512664386439  2.28024982298230
 1 -1.80910102390239  3.64318384278428  4.33219912961296
 1 -3.06445743584358  4.68912611861186  5.01526778447845
 1 -2.98169116411641  2.88887988548855  5.10568557455746
 1 -5.12661572547255  6.81297549194919  2.21132645404540
 1 -9.97325645914591  3.06331698879888 -3.30347359905991
 1 -9.93994479237924  4.64056790089009 -3.12931322202220
 1 -8.98150795059506  4.58995740974097 -5.54521972427243
 1 -7.83534304370437  5.13149289468947 -4.43712366736674
 1 -7.77029687868787  3.37220657945794 -4.92551247604760
 1 -8.29335692529253 -1.46490703360336 -4.96530752905290
 1 -8.62869385238524 -2.94950835593559 -4.04079671667167
 1 -9.63714379387939 -1.52272909630963 -3.57411431813181
 1 -4.31244860226023 -3.85874070067007 -1.39382266916692
 1  2.58579971297130 -6.08331627462746  1.10305626252625
 1  2.23313405680568 -5.15285226132613 -0.35377882748275
 1  3.58596071837184 -3.73159244104410  2.04052906050605
 1  2.56036102280228 -3.49338495959596 -1.70751329232923
 1  3.92787740104010 -2.44408796809681 -1.94188665916592
 1  4.35791796579658 -4.09504323352335 -2.15576450235023
 1  4.78347838873887 -1.28133455745575  0.10433231673167
 1  5.13996252355235 -2.05160679307931  1.54787966826683
 1  6.64377190389039 -3.69747293939394  0.10651853585359
 1  6.33743390379038 -2.72700030903090 -1.06254685018502
 1  7.11995092639264 -0.78166149124912  0.41353859935994
 1  7.93437554045405 -1.98281486458646  1.56955134043404
 1  8.70472458175818 -1.93788206340634 -1.35243858195820
 1  8.89481400010001 -4.03772254365436 -0.36260005240524
 1  10.61128046884689 -3.47522172427243 -0.66265637913791
 1  9.82354141554155 -3.66169726122612  0.96911735443544
 1  9.46901605220522  0.26915264146415 -0.04972960916092
 1  9.79009910741074 -0.86259279317932  1.39745928592859
 1  11.93770891219122 -1.74078411031103 -0.22400677387739
 1  11.18077416411641 -0.56866977187719 -1.52956429002900
 1  11.51247228072807  1.21806623582358 -0.01156071127113
 1  12.24399922322232  0.29205039643964  1.17065534573457
 1  13.28137493819382  0.43039747204720 -1.88064030273027
 1  14.47441677997800 -0.99734794749475  0.70724640464046
 1  14.05642121312131 -1.55859487578758 -0.90828715021502
 1  15.45768675707571 -0.11594479267927 -0.69750664316432
 1  13.45117331153115  2.50174479357936 -0.36863865156516
 1  14.47237393769377  1.78047833703370  0.73113032693269
 1  16.12581423722372  1.40629924262426 -0.89023551425143
 1  15.26198178157816  2.47439135193519 -2.14928630833083
 1  15.32644404900490  4.29972535053505 -0.79930192829283
 1  15.89243201330133  3.67534417581758  0.68625852625263
 1  18.36803048444844  2.92817430863086 -0.99733881348135
 1  16.49224994539454  4.80407693659366 -2.91340370017002
 1  18.42092801630163  3.97660717401740 -3.07069167426743
 1  17.25090529072907  3.13292436243624 -3.28761679627963
 1  18.18571461866186  5.03705492299230  0.50125178937894
 1  19.06469399169917  5.49275342754275 -0.99618653305330
 1  17.30006155705571  6.12746224932493 -0.78137219851985
 1 -4.74208951035104 -7.76525595869587 -0.19260279797980
 1 -6.43296772707271 -7.15570265686569  0.63364687218722
 1 -5.08625679427943 -7.00052162776278  1.49757421402140
 8 -7.69877746934694  6.93172967376738 -0.57315509950995
 1 -8.97941623872387  6.35426107100710 -2.24733041584158

