%nproc=4
%Mem=4GB
# td=(NStates=1) iop(3/107=0140000000,3/108=0140000000) iop(3/107=0140000000,3/108=0140000000) CAM-B3LYP/6-31G(d,p) 

TD

0 1
12 -5.57470897749775  1.27576245054505  0.17397600280028
 6 -5.08904929212921 -2.17163562686269 -0.30552741954195
 6 -3.55740452955296  1.07102738753875  2.82909828312831
 6 -6.12772156785679  4.52382564676468  0.72595280408041
 6 -7.89552531963196  1.13913476417642 -2.49687736123612
 7 -4.45326958025803 -0.37769596139614  1.16438777757776
 6 -4.32459598709871 -1.55747944954495  0.71742409200920
 6 -3.27168029252925 -2.39928323112311  1.54416878057806
 6 -3.04898806980698 -1.46300919181918  2.74491104720472
 6 -3.62194962236224 -0.14681730943094  2.24264885008501
 6 -3.44664770417042 -1.78810225162516  4.13181588098810
 6 -1.96609180238024 -2.71703911321132  0.83189849534953
 6 -0.99932157565757 -3.69769735033503  1.64000758875888
 6  0.22765786628663 -3.93367720842084  0.67418561326133
 8  0.33333339763976 -3.52320963456346 -0.45029126332633
 8  0.99498634433443 -4.77015663296330  1.40256486378638
 7 -4.87440825712571  2.53600297719772  1.51256148784878
 6 -4.02316440624062  2.38988641034103  2.52382298559856
 6 -3.77200670437044  3.55422392459246  3.25293584978498
 6 -4.58589914261426  4.59472100040004  2.67768704000400
 6 -5.22847895209521  3.91756985218522  1.51315740804080
 6 -2.74978034113411  3.70652802860286  4.38636282568257
 6 -4.69051558215822  5.96386380688069  2.95543504830483
 8 -3.91586163416342  6.54423231123112  3.82286618651865
 7 -6.76111991189119  2.60343023882388 -0.71038269456946
 6 -6.91513422822282  3.88699831703170 -0.42299398809881
 6 -7.78725391179118  4.61585831063106 -1.20854496399640
 6 -8.31782123542354  3.67328425832583 -2.06922586698670
 6 -7.68245713621362  2.45239124792479 -1.86232217871787
 6 -8.16732972387239  6.09211912131213 -1.12795230403040
 6 -9.24153851715172  3.91686208440844 -3.26178081088109
 6 -8.47193864756476  4.23290143634363 -4.53558996299630
 7 -6.36602502150215 -0.14350936863686 -1.18741383338334
 6 -7.28603813341334 -0.06121218981898 -2.21703591429143
 6 -7.39185669286929 -1.31894359795980 -2.79966248884888
 6 -6.60989053785379 -2.17793736553655 -2.14811097679768
 6 -5.94456287168717 -1.29606317141714 -1.13783991439144
 6 -8.39393485128513 -1.70091021702170 -4.02818971517152
 6 -6.15930959805981 -3.47959354325433 -2.03289684478448
 8 -6.43145754125413 -4.43545124352435 -2.77822408750875
 6 -5.01454001610161 -3.57477553015302 -0.93192551235124
 6 -5.43931140854085 -4.62267770887089  0.02781645344534
 8 -5.83195896749675 -4.50724973307331  1.15731209460946
 8 -5.05359505770577 -5.84796599299930 -0.36469961456146
 6 -5.32159972417242 -6.94742659595960  0.46130796059606
 6  2.20824179737974 -5.15226634683468  0.72436639103910
 6  3.30963549854986 -4.16285644654466  1.16000390019002
 6  4.01019040924092 -3.32336520662066  0.34430806580658
 6  3.66052039093909 -3.07929287058706 -1.20223972847285
 6  5.04948137393739 -2.44236928452845  0.66808060686069
 6  6.39760463176318 -2.66835976117612  0.02254372177218
 6  7.47960328392839 -1.73037239273927  0.63936962746275
 6  8.85385620692069 -1.94490932453245 -0.05504328682868
 6  9.57276365806581 -3.36604724512451  0.12268881118112
 6  9.89175975507551 -0.85214545194519  0.41133364886489
 6  11.26599390179018 -0.79992959985999 -0.28341710791079
 6  12.16365405400540  0.31155578307831  0.11117796539654
 6  13.49930238603860  0.60898576847685 -0.71185594879488
 6  14.40591889088909 -0.59659906250625 -0.51214536543654
 6  14.11221716131613  1.95143131473147 -0.22691194599460
 6  15.55495968636864  2.22122015021502 -0.92629762476248
 6  16.06763934833483  3.58351310411041 -0.63426403960396
 6  17.35456070517052  3.93160100170017 -1.44805874107411
 6  16.95931852155216  3.85971086278628 -2.91664388858886
 6  17.95012441854185  5.25850111541154 -1.00391985088509
 1 -2.94258998179818  1.12110638603860  3.80327079547955
 1 -6.26910488928893  5.46389176957696  0.84771376307631
 1 -8.44723513071307  1.13839414231423 -3.49248472727273
 1 -3.66939800460046 -3.34272958835884  1.86050411121112
 1 -1.73970109400940 -1.31562922452245  2.60080135623562
 1 -3.01793157225723 -2.61255441664166  4.74977852185219
 1 -3.14355514821482 -0.98592849724972  4.75756778657866
 1 -4.57243975567557 -1.85793487438744  4.09925387588759
 1 -2.33583889758976 -3.22685220252025 -0.06874749854986
 1 -1.40999883228323 -1.87975709200920  0.53108122972297
 1 -0.73114854835484 -3.14590588618862  2.55557977667767
 1 -1.52788751035103 -4.70325745694570  1.69712151015102
 1 -1.77958807260726  3.43541306570657  4.32552846254625
 1 -2.83553454355436  4.64396160216022  4.65163142084208
 1 -3.09945294029403  3.19464046154615  5.39302430843084
 1 -5.44152721662166  6.54730892529253  2.41186650805080
 1 -9.71780091359136  3.05048570567057 -3.58130138183818
 1 -9.93128392629263  4.73273711781178 -3.05510580128013
 1 -8.97643744354436  4.28466688068807 -5.51474667696770
 1 -8.11458096749675  5.19742948834884 -4.48364831983198
 1 -7.77981783078308  3.45083444224422 -4.64962488728873
 1 -7.96898448804881 -1.09323986688669 -5.08430942924292
 1 -8.45946692969297 -2.78234163926393 -4.27994063106311
 1 -9.40836091559156 -1.17212403580358 -3.77530443714371
 1 -4.06845420282028 -3.80063489008901 -1.55325861276128
 1  2.55856698969897 -6.22049999299930  1.23071902880288
 1  2.24456519991999 -5.11929890599060 -0.40097354695470
 1  3.49760188248825 -4.03958324012401  2.19544455205521
 1  2.65112009870987 -3.65849147024703 -1.29273181418142
 1  3.34015862916292 -1.99597315661566 -1.36641911241124
 1  4.52856503050305 -3.45143887308731 -1.88064699059906
 1  4.90647068796880 -1.34110053405341  0.51235311881188
 1  5.08522705000500 -2.63429506190619  1.90188506880688
 1  6.68616614331433 -3.81634482658266  0.02916080008001
 1  6.46895705610561 -2.38382599159916 -1.03717431293129
 1  7.14887381868187 -0.76932025712571  0.41212845834583
 1  7.63641574447445 -2.08624520762076  1.84865925122512
 1  8.67485159445945 -1.79628790399040 -1.14335767386739
 1  9.13576809550955 -4.17363613501350 -0.41405519791979
 1  10.49825916671667 -3.37079128122812 -0.42799291279128
 1  9.57902696409641 -3.64939603110311  1.32776321902190
 1  9.35128427902790  0.07067279347935  0.21081644544454
 1  10.06800689818982 -0.94965149904991  1.46596613661366
 1  11.94472961426143 -1.70879091099110 -0.26779115231523
 1  11.08063415011501 -0.75311821672167 -1.36381771537154
 1  11.69705073857386  1.27220164936494 -0.08565812101210
 1  12.55021984528453  0.09449064046405  1.20164844504450
 1  13.34019081978198  0.63472790509051 -1.81137337603760
 1  14.75916525482548 -0.77779599229923  0.61000668066807
 1  13.91987755875587 -1.43572258855886 -0.83162948444844
 1  15.53250423882388 -0.46686988518852 -0.93388028052805
 1  13.31005920012001  2.77542216131613 -0.36165795349535
 1  14.38185488578858  1.88005829502950  0.85878309220922
 1  16.23409506530653  1.38082669536954 -0.73037952865287
 1  15.41879746314632  2.15945985878588 -2.19355073477348
 1  15.30785218981898  4.21855723372337 -0.70565256335634
 1  16.26036880698070  3.44378101950195  0.39752965336534
 1  18.12458614001400  3.20112160336034 -1.29550863046305
 1  16.23207392779278  4.50502703160316 -3.35880824062406
 1  17.71091701520152  4.24050356365637 -3.74200880598060
 1  16.66675687588759  2.88238930893089 -3.25684371897190
 1  17.98748479567957  5.45034625212521  0.01509317351735
 1  18.79878740104011  5.58770292249225 -1.63636055045505
 1  17.24929648054805  6.02700220332033 -1.46756081738174
 1 -4.67794309570957 -7.77308674177418  0.03331979427943
 1 -6.47716214651465 -7.24386147274727  0.50733424092409
 1 -5.22980114871487 -6.67108868446845  1.67097155375538
 8 -7.61172876447645  6.87681418221822 -0.41679946394639
 1 -8.88617691479148  6.58425407030703 -1.86639232203220

