%nproc=4
%Mem=2GB
# td=(NStates=1) iop(3/107=0140000000,3/108=0140000000) iop(3/107=0140000000,3/108=0140000000) CAM-B3LYP/6-31G(d,p) 

TD

0 1
12 -6.81002357445745  0.69447859195920  0.13770138963896
 6 -4.49181628812881 -1.99700812261226  0.57911818881888
 6 -4.28658047344734  2.77961959505951  1.04674755635564
 6 -9.04371707640764  3.12207623172317 -0.36596609830983
 6 -9.15808390599060 -1.70888391799180 -0.74294435313531
 7 -4.68669374127413  0.34136353405341  0.61753078517852
 6 -3.97012427802780 -0.82355206200620  0.64216477187719
 6 -2.44025744434443 -0.45498725792579  1.13272533483348
 6 -2.43227319311931  1.04104425322532  1.34007617011701
 6 -3.89955621852185  1.44071415661566  0.96435120982098
 6 -2.13960024572457  1.19495129102910  2.90213477627763
 6 -1.47298604700470 -0.79412197559756 -0.05956463016302
 6 -0.13015113341334 -0.88623032963296  0.64060313381338
 6  0.74569564876488 -1.20845808270827 -0.65633380718072
 8  0.76957702580258 -0.68478109060906 -1.75494648484848
 8  1.77775806240624 -1.94537483608361 -0.22908783128313
 7 -6.71376311851185  2.74179454945495  0.22254600250025
 6 -5.55624618551855  3.32743138633863  0.59156545274527
 6 -5.86887110231023  4.86888657345735  0.66936180478048
 6 -7.30850156355636  4.87841393189319  0.36353293659366
 6 -7.79719142304230  3.51995080348035  0.09374420582058
 6 -4.90618553885388  5.79589702020202  1.07094476247625
 6 -8.11474303560356  5.92840976107611  0.17624714841484
 8 -7.71553546974697  7.12368398499850  0.49802765956596
 7 -8.75983953745374  0.70937179637964 -0.48086073517352
 6 -9.49059273167317  1.82107684298430 -0.51185223752375
 6 -10.92941957225723  1.38987885898590 -0.87835361656166
 6 -10.96085044254425  0.09092999739974 -0.96312716821682
 6 -9.73334499779978 -0.50390855405541 -0.63082515921592
 6 -12.00845762106210  2.32922911601160 -0.83818846964696
 6 -12.13924704520452 -0.80584414671467 -1.25906404010401
 6 -12.10990785288529 -1.30383254845485 -2.78371116581658
 7 -6.77212369526953 -1.38936149744974 -0.10397304180418
 6 -7.84943760536054 -2.14390438713871 -0.53385658365837
 6 -7.55434301940194 -3.52275959835984 -0.57034804490449
 6 -6.20848646984699 -3.43570273117312 -0.19660792139214
 6 -5.80019630833083 -2.12607142164216 -0.01114493019302
 6 -8.30920944444444 -4.48667604540454 -1.02538535443544
 6 -5.15708191269127 -4.38188398649865  0.03774179987999
 8 -4.75995774447445 -5.58625916421642 -0.03909340274027
 6 -3.94877860326033 -3.31882244144414  0.48304295149515
 6 -3.20377388828883 -3.60777695319532  1.87423713671367
 8 -3.89493473357336 -3.85489222402240  2.89113778357836
 8 -1.87991966686669 -3.51491779707971  1.97156709590959
 6 -1.11437996009601 -3.68028311841184  3.17114153935394
 6  2.92933482628263 -2.30083526042604 -1.08099934403440
 6  3.96959072647265 -1.32341934303430 -0.90079561186119
 6  5.04784553995399 -1.02708958035804 -1.79766596819682
 6  5.31400538433843 -1.88638177287729 -3.21046802900290
 6  6.18191201580158  0.01385373247325 -1.53393995249525
 6  7.50244893889389 -0.76193197529753 -0.97530426772677
 6  8.53253581388139  0.39493512811281 -0.70059854035404
 6  9.80947403680368 -0.29861678197820 -0.17857616331633
 6  9.67249476577658 -0.67849666436644  1.42204657345735
 6  10.99092142214221  0.76449130333033 -0.27971313291329
 6  12.25047031753175 -0.06891558435844 -0.10866255505551
 6  13.53112465506551  0.78973624832483 -0.01285838743874
 6  14.91505784098410  0.15185846394639  0.28526318841884
 6  14.80655564366437 -0.46702898339834  1.68595851985198
 6  15.93416304470447  1.19325422742274  0.19949315461546
 6  17.47051652975297  0.46989221362136  0.17267039313931
 6  18.28719826722672  1.62411960316032 -0.11953210001000
 6  19.62814501560156  0.96402489728973 -0.30525060876088
 6  19.73826362766277  0.42317774807481 -1.63131892309231
 6  20.81359852875288  1.98342976097610  0.03296820092009
 1 -3.64198483678368  3.50439169016902  1.37847724942494
 1 -9.97117109960996  3.52758184328433 -0.18069170307031
 1 -10.03469596119612 -2.80031043034303 -0.93872669856986
 1 -1.84871738853885 -0.89721733953395  1.93541358965897
 1 -1.76255559415942  1.78394887108711  0.79593604700470
 1 -1.25754713841384  0.80035835023502  3.12604331543154
 1 -2.05510368426843  2.45925450185018  2.95259137693769
 1 -2.94141647414741  0.64542242754275  3.61743761286129
 1 -1.81806082638264 -1.81876314931493 -0.88824661146115
 1 -1.80135530453045  0.05324385148515 -0.76117590839084
 1  0.11093909220922  0.18908747544754  1.02718858405841
 1 -0.00505422522252 -1.56996333013301  1.30402063416342
 1 -4.12445697609761  5.99286711461146  0.40581553925393
 1 -5.58364864546455  6.64712738863886  0.85912281838184
 1 -4.69483051125112  5.66084504550455  1.97893566586659
 1 -9.23630664476448  5.71991710091009 -0.15684206000600
 1 -12.26511606520652 -1.81603247074707 -0.40390481768177
 1 -13.19785600060006 -0.15901950215021 -1.22351998839884
 1 -13.01777960106011 -1.86099821522152 -2.70702781988199
 1 -12.51697866166617 -0.29225180368037 -3.73943611311131
 1 -11.36195301970197 -1.98820213721372 -2.94863147054706
 1 -9.00710989428943 -4.11443799939994 -1.79006123412341
 1 -7.51610682528253 -5.27730774337434 -1.23579323122312
 1 -9.15452273227323 -4.98582054325433 -0.09643503400340
 1 -3.47295687708771 -3.73386711161116 -0.50856916371637
 1  3.25288690409041 -3.19635690949095 -1.06370208730873
 1  2.63552784158416 -2.08855477047705 -2.15742597789779
 1  3.99480680838084 -0.68727147554756  0.06837043864386
 1  4.50937399439944 -1.61786525902590 -3.79009912491249
 1  6.32147572597260 -2.01707038243824 -3.86947817171717
 1  5.24440826822682 -3.16979959425943 -2.86933111691169
 1  6.42629305120512  0.55248058545855 -2.43468608580858
 1  6.17989309870987  0.80716626442644 -1.02120638403840
 1  7.21437261616162 -1.24835303240324 -0.14540281868187
 1  7.68772417081708 -1.51591038133813 -1.72809228512851
 1  8.78375050645064  1.24970556535654 -1.72920570587059
 1  7.86077457555756  1.24676986518652  0.22319802820282
 1  10.11207365446545 -1.39306675037504 -0.68361551915192
 1  8.89236148044805 -1.39835865156516  1.50793915471547
 1  10.52782885228523 -1.12802668386839  1.77309920132013
 1  9.53828704030403  0.24679345694569  2.04805611071107
 1  11.24831846964697  1.69336209610961 -1.30290746234623
 1  10.84507425402540  1.42283115871587  0.64072795309531
 1  12.20471801400140 -0.79559199869987  0.61616529982998
 1  12.21880403440344 -0.72090031063106 -1.06822982048205
 1  13.52250712071207  1.40405995099510 -0.77017592219222
 1  13.27310935573557  1.34392864416442  0.88253404280428
 1  15.14257568336834 -0.19656717271727 -0.30077826902690
 1  14.83061296119612  0.65357575307531  2.36603937693769
 1  13.79603687718772 -1.14595226712671  1.84809230733073
 1  15.66848388148815 -1.26164974807481  2.05650212791279
 1  15.67742887778778  1.73075306870687 -0.78715869056906
 1  15.99316334893489  1.63803333883388  0.80836916011601
 1  17.83550486558656 -0.28525535493549  0.80949113581358
 1  17.50507803200320 -0.15673750455046 -0.71196257365737
 1  17.94965997309731  2.17807435523552 -0.70913390169017
 1  18.08613860996100  2.75500940784078  0.73627029752975
 1  19.80841340254026  0.04247709390939  0.35608895969597
 1  19.80026834483448  1.29999504910491 -2.50484260946095
 1  20.56528081808181 -0.07724952675268 -1.98600273367337
 1  19.01377410441044 -0.45109282768277 -1.85940401510151
 1  20.82363914251425  2.33837341644164  1.21860261386139
 1  21.50661840214022  1.58438502120212  0.11893917891789
 1  20.67813446634663  2.69965745294529 -0.46313110941094
 1  0.02945732063206 -4.01929467886789  2.99729807780778
 1 -1.49511919291929 -4.70535780948095  3.36503714031403
 1 -1.54453846714671 -2.80930940804080  4.05228938213821
 8 -11.84441281558156  3.53507830703070 -0.78018983268327
 1 -13.20630114161416  2.28056929702970 -0.88016862186219

