%nproc=4
%Mem=4GB
# td=(NStates=1) iop(3/107=0140000000,3/108=0140000000) iop(3/107=0140000000,3/108=0140000000) CAM-B3LYP/6-31G(d,p) 

TD

0 1
12 -5.61880338693869  1.29642451675168  0.15910451565157
 6 -5.05912629982998 -2.09822828612861 -0.40379724652465
 6 -3.38391718081808  1.19492977777778  2.80779615291529
 6 -6.19649844554455  4.51186445064506  0.60037024582458
 6 -8.00067583468347  1.07362821352135 -2.32733040654065
 7 -4.42272652595260 -0.25917410921092  1.01310264906491
 6 -4.26708023552355 -1.67785148674867  0.69920226982698
 6 -3.31035415991599 -2.29059236203620  1.46766112981298
 6 -2.88807197819782 -1.33179607050705  2.69553610971097
 6 -3.67155458285829 -0.05742837053705  2.07807239243924
 6 -3.43881692109211 -1.81116455785579  4.03983668306831
 6 -2.07289248244824 -2.74030143944394  0.68222352785279
 6 -1.06848849234923 -3.65668324892489  1.52273586158616
 6  0.23166826732673 -3.89859370007001  0.65491368606861
 8  0.36947701200120 -3.53008032163216 -0.45473170737074
 8  1.06070291599160 -4.65847546484648  1.30791539883988
 7 -4.85381619791979  2.61442081898190  1.40832106380638
 6 -3.92538462826283  2.35274269596960  2.43354395769577
 6 -3.75115461916192  3.63324182638264  3.16058661486149
 6 -4.49243979667967  4.61213274157416  2.48984825612561
 6 -5.21599770397040  3.92879097429743  1.43180927322732
 6 -2.79700506360636  3.64118149394939  4.33403759315932
 6 -4.40396692729273  6.01478889938994  2.75688519331933
 8 -3.69409945794579  6.55560344834483  3.65329922982298
 7 -6.90504430433043  2.67670756655666 -0.74971662796280
 6 -7.00698341314131  3.87904752195220 -0.36869855855586
 6 -8.00880606700670  4.58141486628663 -1.22732684218422
 6 -8.48565801910191  3.57892482238224 -2.14573351775177
 6 -7.81009990049005  2.41490749954995 -1.77256320282028
 6 -8.30349334023402  6.02781269066907 -1.10493000180018
 6 -9.48466282958296  3.82782318051805 -3.23078771157116
 6 -8.72154360806081  4.37936608280828 -4.48725512951295
 7 -6.39026744574457 -0.07900291799180 -1.05925101710171
 6 -7.33092262186219 -0.08668473707371 -2.03389760046005
 6 -7.52610011721172 -1.40265196879688 -2.67565008760876
 6 -6.57767731653165 -2.15426499829983 -2.04080024572457
 6 -5.92359077447745 -1.33045661076108 -1.12332846324632
 6 -8.27923338113811 -1.62061218721872 -3.91367826402640
 6 -6.17918158525853 -3.53407899179918 -2.07703125822582
 8 -6.46580097559756 -4.52473017141714 -2.69854611971197
 6 -5.07265582768277 -3.55116316891689 -0.83948626842684
 6 -5.33327080448045 -4.57800324142414  0.23775744754475
 8 -5.81709748134813 -4.36192520062006  1.35902226562656
 8 -4.85827552575258 -5.78364956135614 -0.21023416801680
 6 -5.21309887408741 -6.98810066336634  0.60387221702170
 6  2.36259723292329 -5.02200332053205  0.69361331573157
 6  3.38206274127413 -4.07422758365837  0.95985388518852
 6  4.01936132633263 -3.16174904500450  0.14208784378438
 6  3.68342268116812 -2.93054799609961 -1.35115461996200
 6  5.09473589938994 -2.29774482208221  0.67638143694369
 6  6.42739761106111 -2.71433435863586 -0.01313984658466
 6  7.67349267286729 -1.80113946944694  0.51193688418842
 6  9.07410823212321 -2.15023985758576 -0.06695447794779
 6  9.59939632133213 -3.49357999839984  0.36474301660166
 6  9.98571915101510 -0.91785202260226  0.34194671017102
 6  11.39988729112911 -1.06173578047805 -0.33392215841584
 6  12.17692538113811  0.25979060656066  0.00092694029403
 6  13.52991544734473  0.39985485538554 -0.69798456165617
 6  14.42554085308531 -0.94588399099910 -0.67329148004800
 6  14.28806474607461  1.64922109370937 -0.14821407620762
 6  15.51429561996200  2.11876990519052 -0.97320231523152
 6  16.03504608900890  3.51961671447145 -0.56778739193919
 6  17.27024227332733  4.01737957955796 -1.25800973617362
 6  17.07593018271827  4.22583747544754 -2.71702392659266
 6  17.57183658975897  5.40301556685669 -0.53502296119612
 1 -2.75594131693169  1.10638491389139  3.73022349074908
 1 -6.38903688248825  5.65807118751875  0.77582657435744
 1 -8.76534694189419  1.28279858275828 -3.24283976277628
 1 -3.74630569536954 -3.31657697309731  1.79984804560456
 1 -1.74289141304130 -1.20016767836784  2.66281755785579
 1 -2.99594937403740 -2.74115727692769  4.38923246724672
 1 -3.29552034473447 -1.13301320572057  4.89410143994400
 1 -4.66803931563156 -2.05775485638564  4.17501145164517
 1 -2.42801811551155 -3.26638615591559 -0.28363898769877
 1 -1.39985781818182 -2.01927104340434  0.19781790339034
 1 -0.82047748124812 -3.34585588118812  2.52466668536854
 1 -1.40319504110411 -4.77317444864486  1.82239403740374
 1 -1.66802691649165  3.23123264766477  4.13663957365737
 1 -2.66482747284728  4.63360056605660  4.89987624532453
 1 -3.15811880688069  3.06401739923992  5.11969697569757
 1 -5.11749481338134  6.72003619801980  1.96440176157616
 1 -10.09814894839484  2.99099975707571 -3.58485173687369
 1 -10.34448524642464  4.50023386748675 -2.78553884458446
 1 -9.54466426622662  4.68103651765176 -5.31647684998500
 1 -8.06048555795580  5.25342508790879 -4.24350430543054
 1 -7.99342919191919  3.73511287008701 -4.97969789458946
 1 -8.17167475707571 -0.84894543744374 -4.71946294459446
 1 -8.08894987798780 -2.61097450255025 -4.41629426642664
 1 -9.34114419391939 -1.58817564096410 -3.83831073777378
 1 -4.29995735313531 -3.75285011161116 -1.39836312321232
 1  2.45567670067007 -6.13946188918892  0.91454741164116
 1  2.05371611501150 -5.03664064016402 -0.27363081268127
 1  3.64254637693769 -4.04971425322532  1.98350335793579
 1  2.67554254095410 -3.49858547964797 -1.42475501650165
 1  3.46592120542054 -1.51761532083208 -1.25947841834183
 1  4.37322949694969 -3.23939766896690 -2.03198212411241
 1  4.94803484438444 -1.26042246624662  0.38996087958796
 1  5.15040356765677 -2.25817745014501  1.76700158045805
 1  6.87959548624862 -3.78368156025603  0.10639852385239
 1  6.56726688708871 -2.61036864586459 -1.09024962046205
 1  7.30526945824583 -0.67979130423042  0.38798604410441
 1  7.57883998689869 -1.94446102920292  1.50700508580858
 1  8.67643175247525 -2.11656993219322 -1.17955129322932
 1  8.96613113181318 -4.25435420682068 -0.02942673507351
 1  10.57501684248425 -3.96500070217022 -0.02727284078408
 1  9.49847890929093 -3.42600369186919  1.44182462516252
 1  9.57304645524552  0.09728545474547  0.12762812661266
 1  9.96846694419442 -0.86837337123712  1.52579211921192
 1  12.04272941424142 -1.91674170607061  0.01484711151115
 1  11.32207829452945 -1.04025693059306 -1.58093942754275
 1  11.60950198369837  1.23649807900790 -0.24064361956196
 1  12.27778260156015  0.33691488288829  1.02623090329033
 1  13.32806960766077  0.52337676997700 -1.76699893859386
 1  14.99509884818482 -1.30133834653465  0.32563824382438
 1  13.63812938393839 -1.80567958425843 -0.81789811131113
 1  15.27156814521452 -0.69090228842884 -1.35227211971197
 1  13.55489368356836  2.47152177127713 -0.23131491919192
 1  14.64072077237724  1.49378966816682  0.91380859475948
 1  16.37462911871187  1.36597521022102 -0.83169966066607
 1  15.45133071647165  2.10800471327133 -1.96871825152515
 1  15.26465787038704  4.31009638763876 -0.92940493859386
 1  16.22356512661266  3.55877251865187  0.42215211561156
 1  18.17208088948895  3.29163065426543 -1.14666374597460
 1  16.17551827222722  4.73930045894589 -3.16274863466347
 1  17.97320324382438  4.77708722202220 -3.18107271237124
 1  16.99966016621662  3.21629269926993 -3.13419145374537
 1  17.70050609780978  5.28414963246325  0.50511217541754
 1  18.53437095939594  5.91662581478148 -0.90327724212421
 1  16.72298384928493  6.00334983808381 -0.88634269556956
 1 -4.97424272567257 -7.77563699679968 -0.17954149184918
 1 -6.24541897219722 -6.64475156175618  0.93646715421542
 1 -4.60836900550055 -7.08132970857086  1.43597805440544
 8 -7.94539213081308  6.72183868466847 -0.23001078507851
 1 -9.16776507360736  6.32127777267727 -1.79021470427043

