%nproc=4
%Mem=2GB
# td=(NStates=1) iop(3/107=0140000000,3/108=0140000000) iop(3/107=0140000000,3/108=0140000000) CAM-B3LYP/6-31G(d,p) 

TD

0 1
12 -6.94991756385639  0.62352149624963  0.18155577507751
 6 -4.74614172067207 -1.96916533833383  0.50366064306431
 6 -4.19717153255325  2.84224585768577  0.80426330793079
 6 -9.13218592329233  3.07363138723872 -0.24861436313631
 6 -9.44243234083408 -1.72783581318132 -0.62565262396240
 7 -4.75890096199620  0.43129252695270  0.61049008110811
 6 -4.09784705030503 -0.86355606240624  0.65412596799680
 6 -2.56521994059406 -0.49169092829283  0.95722778507851
 6 -2.49955992179218  1.03388353715372  1.06670883338334
 6 -3.90088635153515  1.49490957615762  0.80851562626263
 6 -1.98874516021602  1.46954875077508  2.46327088988899
 6 -1.64453320172017 -0.96105866926693 -0.14960363406341
 6 -0.11684980328033 -0.99430113671367  0.15838491199120
 6  0.88722980218022 -1.03047028392839 -0.95728390219022
 8  0.78862893099310 -0.57813042554255 -2.10869185938594
 8  1.92041232783278 -1.81801209980998 -0.65552047454745
 7 -6.72309405160516  2.50315068506851  0.23455720362036
 6 -5.61561212211221  3.32014065726573  0.56363265946595
 6 -5.82941715691569  4.83488317311731  0.81025589418942
 6 -7.15409612301230  4.90732682318232  0.36711329462946
 6 -7.89973167706771  3.56093490189019  0.12000683208321
 6 -4.76154107440744  5.87209463996400  0.90288795679568
 6 -8.03903546484649  6.13289020912091  0.35148467216722
 8 -7.50316423262326  7.37468908550855  0.44107196399640
 7 -8.82718627212721  0.80856171537154 -0.31590423952395
 6 -9.50819449184918  1.84659939523952 -0.46209726202620
 6 -10.95981261156116  1.64369424052405 -0.91037681888189
 6 -11.05494985248525  0.12819372377238 -0.88642949844984
 6 -9.70316197949795 -0.37862602580258 -0.64343642034203
 6 -11.94615139043904  2.60981717481748 -1.07470212101210
 6 -12.22795591609161 -0.71867542984298 -1.12141027472747
 6 -12.41044790689069 -1.34936710191019 -2.61244403910391
 7 -7.28277476037604 -1.48463102440244  0.11631898739874
 6 -8.21207386898690 -2.23286328302830 -0.33558675667567
 6 -7.96157374247425 -3.76237355975598 -0.29357036713671
 6 -6.53284890609061 -3.74295345624562  0.12645438483848
 6 -6.22446873557356 -2.35041385588559  0.23772995729573
 6 -8.94914343784378 -4.74480185798580 -0.63378619451945
 6 -5.43961016551655 -4.53341914001400  0.36199422512251
 8 -5.21535328402840 -5.75628616691669  0.20599110571057
 6 -4.14238796419642 -3.44797535673567  0.59429407660766
 6 -3.34184769566957 -3.74622079757976  1.89369908290829
 8 -3.90020526062606 -4.04886162096210  3.03050171997200
 8 -1.95354702960296 -3.81235754105411  1.70651059025903
 6 -1.24616313841384 -4.25982107220722  3.03255768096810
 6  3.06813870667067 -1.99863504040404 -1.70716196029603
 6  4.17006077347735 -1.11707870897090 -1.19126465876588
 6  5.13335409080908 -0.98813568496850 -1.93555975757576
 6  5.40525450925093 -1.57211034573457 -3.25061204340434
 6  6.20731455605561  0.04520686778678 -1.62363892239224
 6  7.54086278027803 -0.68546432853285 -0.96483322062206
 6  8.70619317961796  0.25099073367337 -0.72373085358536
 6  9.97507059645965 -0.34780170047005 -0.08416672237224
 6  9.73543105940594 -1.07521633633363  1.32092646144614
 6  11.24172650265027  0.59361421562156  0.16779161756176
 6  12.52629790029003 -0.13295198799880  0.25907421862186
 6  13.60357189978998  0.87054432913291  0.32340523892389
 6  15.10455679087909  0.15228850695070  0.57926258835884
 6  15.14512950105011 -0.47535981648165  1.91231115511551
 6  16.31612124052405  1.16292119411941  0.30775398069807
 6  17.56872635073507  0.74620984538454  0.23266639273927
 6  18.79565911331133  1.74383157435744 -0.06882702950295
 6  20.01983418451845  1.20302879767977 -0.23736382008201
 6  20.03514331563157  0.54619004930493 -1.62722851405141
 6  21.20429759865987  2.24983640164016  0.00986589068907
 1 -3.37978861716172  3.51442269326933  1.04695409710971
 1 -9.94961894439444  3.74535362046205 -0.08760239413941
 1 -10.22353484508451 -2.56408680798080 -0.96740956685668
 1 -2.20834335113511 -1.06268388618862  1.77541759005901
 1 -1.79038837743774  1.56645712191219  0.44150060346035
 1 -1.22005338903890  1.09293760816082  2.90343105420542
 1 -1.79375754965497  2.25939451585159  2.79117523532353
 1 -2.87643997649765  1.29710759605961  3.29519538863886
 1 -2.44819383968397 -1.93852512551255 -0.31301908870887
 1 -1.77708287728773 -0.44088556145615 -1.37580737153715
 1  0.22717071537154  0.01204977167717  0.70013587878788
 1  0.26340262046205 -1.90424675847585  0.89939017111711
 1 -3.91144567496750  5.53776160406041  0.32987794549455
 1 -5.17241752235224  6.96420909680968  0.61690859695970
 1 -4.31222225042504  5.97753671467147  1.79465723802380
 1 -9.15477849194920  5.81334644384438 -0.02468884468447
 1 -12.26262581618162 -1.73636450395039 -0.20581500870087
 1 -12.89506572157216 -0.12358595879588 -0.86101373777378
 1 -13.16597442054205 -2.29111122652265 -2.86115323242324
 1 -12.53639060286029 -0.39650222872287 -3.55565773527353
 1 -11.24437126152615 -2.06136945394540 -2.62416902430243
 1 -9.14234341764177 -4.79444600020002 -1.73153538153815
 1 -8.38519373397340 -5.86274628722872 -0.48302795469547
 1 -9.84265154515452 -4.60589255045505 -0.04925031553155
 1 -3.26894647604760 -3.42985671057106 -0.34248255505551
 1  3.11984359975998 -3.22264953875387 -1.50480619771977
 1  2.85054934373437 -1.92144805980598 -2.85795603090309
 1  3.81277860556056 -0.49798254665467 -0.20041644004400
 1  4.85640869786979 -0.85550902340234 -4.21304141914191
 1  6.84674825322532 -1.59124780018002 -3.43584480838084
 1  5.11888571597160 -2.54576719101910 -3.37900208400840
 1  6.48894931683168  0.58801413881388 -2.76352897009701
 1  5.74358946834683  1.00883643144314 -0.97406166956696
 1  7.39078025692569 -1.15584378147815  0.04771649324932
 1  8.02755815421542 -1.28242703300330 -1.44936441234123
 1  8.87558969036903  0.55613620842084 -1.78862164746475
 1  8.43560205830583  1.08680386858686  0.36789249764976
 1  10.45032747984799 -1.02734017771777 -0.93060021762176
 1  8.86382862716272 -1.79766858255826  1.26394475527553
 1  10.50648671807181 -1.83080696189619  1.57621951335133
 1  9.43864707630763 -0.35838706110611  2.17062836793679
 1  11.50483412121212  1.36961972187219 -0.73600077167717
 1  11.23825357195719  1.39213808940894  1.16674055435544
 1  12.29311685388539 -0.96813925342534  1.10661434473447
 1  12.71919407340734 -0.61866008660866 -0.48033103060306
 1  13.74253912391239  1.70673021802180 -0.41424032863286
 1  13.12912495729573  1.87866211751175  0.99238502790279
 1  15.02447387318732 -0.61781929792979 -0.21420961216122
 1  15.16792669256926  0.36483687918792  2.66979975297530
 1  14.50364763826383 -1.35803347524752  1.98306580468047
 1  16.00504753785378 -1.35347893099310  1.85735221292129
 1  16.16848798369837  1.67134712811281 -0.72081205590559
 1  16.19871390399040  1.70315985148515  1.08400672387239
 1  17.97979929502950  0.47459062966297  1.12412259895990
 1  17.35292281648165 -0.01847367816782 -0.40781215861586
 1  18.66700170727073  2.51148769656966 -0.96837982628263
 1  18.56870686678668  2.64404831173117  0.85398206870687
 1  19.96205876707671  0.47767061326133  0.23059641044104
 1  19.87497581558156  1.09822487208721 -2.30596272147215
 1  21.07023131313131 -0.07125892769277 -1.88616274967497
 1  19.21680440744074 -0.44117183558356 -1.65390346504650
 1  21.08020479907991  2.54231381048105  0.76597735133513
 1  22.04364210451045  1.98723530623062 -0.41363407840784
 1  20.98500515341534  2.98441592879288 -0.94577937423742
 1 -0.37334295939594 -4.53903665306531  2.65597394539454
 1 -1.72409209020902 -4.97415468916892  3.77219785638564
 1 -1.06522053535353 -3.37345582268227  3.60954510771077
 8 -11.79208758305831  3.80871567076708 -0.99362117581758
 1 -12.67787829932993  2.12286352645265 -1.46651725672567

