%nproc=4
%Mem=2GB
# td=(NStates=1) iop(3/107=0140000000,3/108=0140000000) iop(3/107=0140000000,3/108=0140000000) CAM-B3LYP/6-31G(d,p) 

TD

0 1
12 -6.77091966406641  0.58745788988899  0.13050066956696
 6 -4.47706481298130 -2.12415083688369  0.33280355735574
 6 -4.18433024842484  2.80371200430043  0.78034091569157
 6 -9.17316002070207  3.18852287638764 -0.14127362906291
 6 -9.31134923252325 -1.79607263686369 -0.74968502720272
 7 -4.54862993489349  0.38792819051905  0.39053808590859
 6 -3.93980124572457 -0.83674338113811  0.65965652105211
 6 -2.45881930053005 -0.56315807500750  1.01565362766277
 6 -2.36243620942094  1.14287443624362  1.11901406390639
 6 -3.89017528042804  1.49860994619462  0.72448722342234
 6 -1.89129541524152  1.58504029992999  2.48816337913791
 6 -1.58153690209021 -1.03641620502050 -0.01571024472447
 6 -0.19516763506351 -1.44700640724072  0.35067414091409
 6  0.76783786298630 -1.50418765566557 -0.68394656845685
 8  0.71532160026003 -1.05163777627763 -1.76452744294429
 8  1.87180746734674 -2.26927722632263 -0.16993191569157
 7 -6.69302104430443  2.64716508650865  0.38481222912291
 6 -5.52028258915892  3.22997164036404  0.75199149534953
 6 -5.93747796299630  4.81053073787379  0.79735460406041
 6 -7.29173988738874  4.87543363386339  0.44629121242124
 6 -7.90807251115112  3.54006281468147  0.25109994139414
 6 -4.93290821112111  5.88743617411741  1.07002467046705
 6 -8.18864042534253  6.08852577267727  0.50894041774177
 8 -7.75654957115712  7.20891250785079  0.63832168896890
 7 -8.77972152565257  0.68102896209621 -0.35212786188619
 6 -9.55592926532653  1.89853458875888 -0.44735578787879
 6 -10.92879951025103  1.71968183928393 -0.86313209440944
 6 -10.93034739223922  0.23597450185019 -1.02986384188419
 6 -9.63848551185118 -0.34157232043204 -0.74018609530953
 6 -12.02511928722872  2.65095128822882 -0.86679132993299
 6 -12.10943406390639 -0.57377093939394 -1.55787392109211
 6 -12.04278114021402 -1.12068423362336 -3.02702549724973
 7 -6.71890837373737 -1.30496305760576 -0.25884852935294
 6 -8.02554521612161 -2.24506450315031 -0.31083428142814
 6 -7.50707829292929 -3.71902922532253 -0.34835584568457
 6 -6.16611223242324 -3.55468462936294 -0.24017227782778
 6 -5.79733602230223 -2.11396021052105 -0.14490830653065
 6 -8.30886941044104 -4.74408178597860 -0.75586840274027
 6 -5.05418162266227 -4.40616641474147 -0.24086606090609
 8 -4.75293704240424 -5.50276081438144 -0.37626712011201
 6 -3.80429415481548 -3.40644120332033  0.40306495369537
 6 -3.26259977087709 -3.81548772427243  1.78205791879188
 8 -3.93877911801180 -3.97215395019502  2.80377904770477
 8 -2.05552722762276 -3.68729503480348  1.74629456865687
 6 -1.42843136523652 -3.84166925702570  3.00331475667567
 6  3.05196708950895 -2.35812098899890 -0.96737798189819
 6  3.98034180158016 -1.32956995809581 -0.63444897719772
 6  5.10187094249425 -1.03213008440844 -1.39943614521452
 6  5.34207819161916 -1.39650278497850 -2.64770175237524
 6  6.07416124072407 -0.14256190909091 -1.03800035853585
 6  7.33891258525853 -0.70572635473547 -0.39567630493049
 6  8.48650121042104  0.31852748734873 -0.23437191769177
 6  9.74309739913991 -0.33661058135814  0.31549324362436
 6  9.67576509280928 -0.99633844854485  1.50271464026403
 6  10.89696202620262  0.60148500270027  0.42425726412641
 6  12.19201447194719  0.00603191039104  0.50325863706371
 6  13.32300384298430  1.11432870757076  0.32507540594059
 6  14.83621995719572  0.35699897799780  0.42608727082708
 6  14.82628761686169 -0.08292057255726  1.92851277527753
 6  15.96903653205321  1.28999390139014 -0.05318211291129
 6  17.35559503760376  0.61570679507951 -0.25955282918292
 6  18.34427397479748  1.75342253345334 -0.76112625942594
 6  19.85678787988799  1.13159165396540 -0.83329341304130
 6  19.97207700900090  0.31355678597860 -1.97749354055406
 6  20.99706687558756  2.11694311231123 -0.86145124102410
 1 -3.10979161746175  3.33225447644765  0.68547794949495
 1 -9.95125910841084  3.87572665776578 -0.29035266916692
 1 -10.20154264586459 -2.56791719101910 -0.75865869176918
 1 -2.50983350015002 -0.99428704650465  1.94725477377738
 1 -1.60897023562356  1.61742221842184  0.51525797919792
 1 -0.88486987068707  1.05643395779578  2.86562727382738
 1 -2.51494966886689  2.70681925832583  2.47028314611461
 1 -2.39370170267027  1.03860174547455  3.07831370047005
 1 -1.69421844214421 -2.26531780478048 -0.44068185498550
 1 -1.49229439843984 -0.61539301220122 -1.37670746154615
 1  0.40039803810381 -0.47131856515652  1.32810867606761
 1 -0.21378509830983 -2.28382471627163  1.17692792489249
 1 -4.01381591199120  5.34051187908791  0.75246020372037
 1 -5.28791907250725  6.88905158105811  0.61145805190519
 1 -4.79315034323432  6.12604156515652  2.16221399369937
 1 -9.51346436053606  5.89921503070307  0.49491311551155
 1 -12.08058761236124 -1.53573444094409 -0.86773120032003
 1 -13.12630884588459  0.10521692149215 -1.34285192159216
 1 -12.98917674077408 -2.04595671107111 -3.21389850695070
 1 -12.29807677147715 -0.13503608210821 -3.74877704720472
 1 -11.27887471187119 -1.85458877587759 -3.42038864626463
 1 -8.65979516281628 -4.33509006460646 -1.81292352035204
 1 -7.58615382998300 -5.64803481608161 -0.63865351725172
 1 -9.20522780278028 -5.09031099229923 -0.14147953845385
 1 -3.21839142054205 -3.57871159605960 -0.57030533733373
 1  3.15202681808181 -3.50888816261626 -0.52806852395240
 1  2.78740302910291 -2.46838275327533 -2.04357459275928
 1  3.88853618131813 -0.90194294269427  0.34564816641664
 1  4.98119117611761 -1.05377885038504 -3.42452256725673
 1  6.34865844424442 -1.52406108150815 -2.66060728462846
 1  5.04160798819882 -2.38656127042704 -2.81136532033203
 1  6.37971839373937  0.28497383478348 -1.75123774097410
 1  5.62614772417242  0.79997554535454 -0.54629889328933
 1  7.24751593049305 -1.38792698979898  0.37159888148815
 1  7.99180457885789 -1.30828961926193 -1.21027050295029
 1  8.82542467386739  0.74765536033603 -1.46768955425543
 1  8.27418591669167  1.36666185438544  0.27260296869687
 1  10.12199464656466 -0.92650009370937 -0.10814797239724
 1  9.01375361966197 -2.05729454515451  1.93808216901690
 1  10.70876694609461 -1.13028690989099  1.60802269366937
 1  9.56987019861986 -0.11943316571657  2.22502380748075
 1  11.10795443324332  1.25541830173017 -0.79882705430543
 1  10.85503525012501  1.31578045364536  0.93318719901990
 1  12.43601114331433 -0.28920135963596  1.72109579287929
 1  12.39412156615662 -0.76677489808981 -0.31358435593559
 1  13.49071394139414  1.66263580858086 -0.87317622222222
 1  13.36894893969397  1.74539879117912  0.99685547494749
 1  14.92488391419142 -0.63713122912291 -0.18627681888189
 1  14.63470337023703  0.97536793229323  2.45138791179118
 1  14.41012828632863 -1.05961363326333  2.14958245634564
 1  15.85718275137514 -0.23858744184418  2.14128060576058
 1  15.49590072497250  1.66515650905091 -0.82035200990099
 1  16.18655268786879  1.87702723822382  0.70429875307531
 1  17.48792010711071  0.04474764536454  0.58796898359836
 1  17.21575910011001 -0.21314314511451 -1.09957133453345
 1  18.12727773487349  2.11573812161216 -1.50409339763976
 1  18.37898789488949  2.44134804170417  0.06398306880688
 1  20.18429099029903  0.63944679087909 -0.14118076727673
 1  19.88877719571957  0.95121017061706 -3.08441056625662
 1  21.16195048504850 -0.52095389718972 -1.84971910531053
 1  19.25342806980698 -0.48966668506851 -1.96589466416642
 1  20.64475125372537  2.54877445654565  0.10873162676268
 1  22.02671041134113  1.75289187188719 -1.09825254025403
 1  20.94089074197420  2.84247173437344 -1.51528632493250
 1 -0.31061668676868 -4.26328907830783  2.77970631863186
 1 -2.04839452045204 -4.34876214991499  3.60341097769777
 1 -1.31187520082008 -2.62332080918092  3.68285243844384
 8 -11.96868524282428  3.86951175037504 -0.84843665736574
 1 -12.91563207470747  2.17719895999600 -1.11132173717372

