%nproc=4
%Mem=2GB
# td=(NStates=1) iop(3/107=0140000000,3/108=0140000000) iop(3/107=0140000000,3/108=0140000000) CAM-B3LYP/6-31G(d,p) 

TD

0 1
12 -6.84848742084208  0.55609475357536  0.04682230173017
 6 -4.52010911741174 -1.97887630943094  0.44385466246625
 6 -4.22397421282128  2.79409104220422  0.92629551115112
 6 -9.00925363006301  3.13369739383938 -0.18405790749075
 6 -9.42872096969697 -1.85748877847785 -0.57968802750275
 7 -4.76184125602560  0.34420381808181  0.55155418751875
 6 -4.01230849644964 -0.91246095289529  0.65620617601760
 6 -2.54018743734373 -0.47053881308131  0.92289435173517
 6 -2.38145811161116  1.05702585138514  1.16097826032603
 6 -4.03049931283128  1.49965005020502  0.93579835453545
 6 -2.00763704940494  1.31361315721572  2.71452601540154
 6 -1.43972272067207 -0.67012957635764 -0.24522319601960
 6 -0.06343446174617 -1.13725543214321  0.48585765926593
 6  0.91895297449745 -1.15265250215021 -0.80229840364036
 8  0.74379444754475 -0.63558617111711 -1.94370536073607
 8  1.95678596519652 -1.94406470507051 -0.40163508600860
 7 -6.74713645584558  2.53166353635363  0.35133888178818
 6 -5.60854141504150  3.22139078227823  0.64018031423142
 6 -5.99911412661266  4.74733441824182  0.66873174177418
 6 -7.27887860126013  4.82111820232023  0.26685326862686
 6 -7.82092379627963  3.49180798919892  0.20528535993599
 6 -5.02325724602460  5.89057648814881  1.00813848184818
 6 -8.07362892419242  6.06953387348735  0.08164768846885
 8 -7.67906182238224  7.21035265186519  0.45488334513451
 7 -8.82227578107811  0.55975683488349 -0.37436008510851
 6 -9.46174984738474  1.73406814211421 -0.41745279757976
 6 -10.85452208250825  1.57999787088709 -0.81103688488849
 6 -10.98007236473647  0.06484738913891 -0.82045290079008
 6 -9.77745940924092 -0.35509367256726 -0.55942801950195
 6 -11.86274304960496  2.51455764886489 -0.93325797659766
 6 -12.11474459495949 -0.66809037133713 -1.18334646834683
 6 -12.07490435253525 -0.80375254045405 -2.54661745644564
 7 -6.92287877077708 -1.42465502680268 -0.13777642214221
 6 -8.10215287688769 -2.27607760446045 -0.34224742274227
 6 -7.49351693679368 -3.81250857325733 -0.30157116721672
 6 -6.18380400160016 -3.65017417831783 -0.20752901350135
 6 -5.93543983268327 -2.22987180168017  0.02722890719072
 6 -8.32353087658766 -4.90782816061606 -0.55586840274027
 6 -4.91242744724472 -4.44338013611361  0.06534456015602
 8 -4.53546529522952 -5.65572611091109 -0.00309980338034
 6 -3.80221394679468 -3.34300485968597  0.47001164836484
 6 -3.48728223912391 -3.74097027252725  1.74710442344234
 8 -4.07603284338434 -3.92666940174017  2.75106377617762
 8 -1.98155983088309 -3.51416772207221  1.72437237643764
 6 -1.27887640974097 -3.86731182128213  2.93940836603660
 6  3.10793268606861 -2.03141831873187 -1.32977422152215
 6  4.19178294569457 -0.99451645274527 -0.97830336263626
 6  5.09509026442644 -0.68808567996800 -1.90733693529353
 6  5.16736071987199 -1.38137127182718 -3.04537151935194
 6  6.14225805040504  0.27571991909191 -1.51764832333233
 6  7.40673936793679 -0.60101588368837 -0.88024476177618
 6  8.59150171047105  0.28648428302830 -0.32842132263226
 6  9.77242033143314 -0.51427834813481  0.04913660796080
 6  9.65049256555655 -1.18100691539154  0.94530889968997
 6  10.95036736673667  0.53535839003900  0.31678651705171
 6  12.29548481898190 -0.06764545734573  0.50321863306331
 6  13.49395093769377  0.95291256595660  0.71423432183218
 6  14.81554788998900  0.36722000010001  0.54824948704870
 6  15.00267525562556 -0.58786106660666  1.60629055305531
 6  16.02078170657066  1.21097599959996  0.08966217151715
 6  17.27542702080208  0.50695591999200  0.04267739383938
 6  18.39091863926393  1.58928611981198 -0.18657880468047
 6  19.81779398049805  1.11551004580458 -0.38322840654065
 6  19.72948274957496  0.15891132143214 -1.61897768896890
 6  20.85296246514651  2.22661407940794 -0.54821991789179
 1 -3.50551118941894  3.46280753175318  1.05348475017502
 1 -9.92730671317132  3.96842592769277 -0.47353098699870
 1 -10.33479597119712 -2.64029442874287 -0.52375520142014
 1 -2.15132764956496 -1.16296391419142  1.97197724602460
 1 -2.05046438503850  1.65338581478148  0.41030748414842
 1 -1.14578596229623  0.71061937633763  3.25155586668667
 1 -1.78847702160216  2.31029960636064  2.73612973077308
 1 -2.83188552105210  0.98111599689969  3.20410627972797
 1 -1.96103512381238 -1.24727600060006 -1.10492827962796
 1 -1.21072624162416  0.25824435153515 -0.97383717451745
 1  0.41154915321532 -0.64398583188319  1.18169403460346
 1 -0.15602932273227 -2.15083141694170  0.88389862196220
 1 -4.01959649004900  6.42969079697970 -0.03695873817382
 1 -6.03687396799680  6.80972364826483  0.91699860596060
 1 -4.20615164336434  5.38780774177418  1.85343311561156
 1 -8.93064607870787  5.81205631483148 -0.12649902570257
 1 -12.03187274087409 -1.59183005050505 -0.80511493869387
 1 -13.07177339233923 -0.12254585478548 -0.87256489288929
 1 -12.93455127822782 -1.37394951035104 -2.95386250335033
 1 -12.36066303010301  0.28433585508551 -2.83608577807781
 1 -11.16906373077308 -1.16007932493249 -2.57437404480448
 1 -8.84365354865487 -4.90055661126113 -1.51457368536854
 1 -7.76968218281828 -5.87706771937194 -0.58420807270727
 1 -8.97535481548155 -4.96897885908591  0.24411902140214
 1 -3.11347092849285 -3.15947967286729 -0.44534284108411
 1  3.36615823122312 -3.02813008680868 -1.45776149324932
 1  2.72208649744975 -2.02045796079608 -2.39971020632063
 1  4.26438376607661 -0.50727347574757 -0.07316371477148
 1  4.40241329832983 -0.29522299479948 -3.75433554855486
 1  6.55262884128413 -1.31900057545755 -3.50499172307231
 1  4.83602743014302 -3.02224483878388 -3.24938912271227
 1  6.44791521342134  0.98731406880688 -2.42688530573057
 1  5.93399850925092  0.77078262606261 -0.68918318171817
 1  6.99584076297630 -1.30044824192419 -0.13862214061406
 1  7.88467386578658 -1.04581337163716 -1.85746522242224
 1  8.58013014441444  1.05097569236924 -0.82899568486849
 1  8.30755925402540  0.71026621482148  0.40883659205921
 1  9.98041048814881 -0.81581902560256 -0.83672082968297
 1  8.76203844814481 -1.99106792249225  0.84519288008801
 1  10.45683175257526 -1.49672355355536  1.38268015941594
 1  8.93974718631863 -0.79368059045905  1.40634193929393
 1  10.88519215701570  0.95996875677568 -0.62841001260126
 1  10.67056680328033  1.26596547214721  1.32026590689069
 1  12.03945148734873 -0.92098453795380  1.37321100440044
 1  12.41821397539754 -0.58447666826683 -0.25463846134613
 1  13.66679154915492  1.79733927892789 -0.16755566016602
 1  13.68341038583858  1.41502575387539  1.63022881228123
 1  14.62983440924092 -0.37681519751975 -0.24170236143614
 1  15.24414431433143  0.03141353685369  2.30204297729773
 1  14.41990926442644 -1.63075074697470  1.67826532463246
 1  15.79947698079808 -1.08156173927393  1.45299177687769
 1  15.75716685158516  1.76670666406641 -0.54706468116812
 1  16.19007303990399  1.90779031453145  0.86771509470947
 1  17.46855817091709  0.11564473507351  1.03283347004700
 1  17.39305682988299 -0.19869169997000 -0.80081145854585
 1  18.04260926802680  1.84582112991299 -0.89137212551255
 1  18.63079307540754  2.34455836273627  0.50760743124312
 1  20.08491105230523  0.70445329152915  0.41543489428943
 1  19.77427574557456  0.66710175977598 -2.50749287448745
 1  20.57944223422342 -0.49473127492749 -1.43891802520252
 1  18.91375410241024 -0.70290800920092 -1.01940001470147
 1  21.20807758635863  2.60678025712571  0.25308606220622
 1  21.81476921722172  1.85260184288429 -0.85355807080708
 1  20.36228288118812  2.81078856605661 -1.14561935823582
 1 -0.43066869196920 -3.88758150755076  2.68699704770477
 1 -1.65255493649365 -4.65735300900090  3.20842147874787
 1 -1.17806181948195 -3.25871434853485  3.86755090829083
 8 -11.85449382368237  3.72122692189219 -0.94189600330033
 1 -12.83291380288029  2.07765900600060 -0.99528013301330

