%nproc=4
%Mem=2GB
# td=(NStates=1) iop(3/107=0140000000,3/108=0140000000) iop(3/107=0140000000,3/108=0140000000) CAM-B3LYP/6-31G(d,p) 

TD

0 1
12 -6.73934650675068  0.44413355745575  0.21072869236924
 6 -4.50507761426143 -2.08830725252525  0.53235351235124
 6 -4.26652846824682  2.80550218331833  1.15736861846185
 6 -9.02349505420542  3.29010303440344 -0.17788729042904
 6 -9.29262736033603 -1.75688871847185 -0.84428448714871
 7 -4.86357142904290  0.26212561026103  0.90323935603560
 6 -4.12482974857486 -0.90847055385539  0.77902845824582
 6 -2.57853127172717 -0.58634039323932  0.99701176347635
 6 -2.49080904670467  0.83498364716472  1.33454561706171
 6 -4.10399666256626  1.35047513271327  1.13749852455246
 6 -2.32858914461446  1.25708750465047  2.70835539833983
 6 -1.60180892929293 -1.07303986738674 -0.13063173687369
 6 -0.17736585488549 -1.03482518911891  0.40761983548355
 6  0.81103218241824 -1.06001323822382 -0.74965313911391
 8  0.58848891699170 -0.53893650615061 -1.79988097829783
 8  1.91272155875588 -1.78412871147115 -0.27789271177118
 7 -6.83950569276928  2.58790916091609  0.46771051895189
 6 -5.67646820772077  3.27060570377038  0.79577587378738
 6 -5.93269748494849  4.67650733553355  0.64643951255126
 6 -7.22177289068907  4.95142123262326  0.31236782008201
 6 -7.86123782768277  3.55016382478248  0.18157298869887
 6 -5.06403132343234  5.70917834833483  1.04484215221522
 6 -8.10919248054805  6.13835075517552  0.17393691739174
 8 -7.76376029222922  7.16603822042204  0.51855971277128
 7 -8.98756230973097  0.67323818301830 -0.18102075117512
 6 -9.52928660106011  1.81749648494849 -0.52036308860886
 6 -10.87314394469447  1.62247211831183 -1.03164894609461
 6 -10.98231258875887  0.11986289068907 -0.87514837033703
 6 -9.72697436073607 -0.38814697789779 -0.67665974267427
 6 -11.93297007230723  2.48558475157516 -1.20922557335734
 6 -12.20564368486849 -0.67286084838484 -1.18568670237024
 6 -12.40982784488449 -1.12780494569457 -2.67759055375538
 7 -6.85984246714671 -1.45842840414041 -0.15958860336034
 6 -8.00662332393239 -2.29144914161416 -0.40091328932893
 6 -7.56987457255726 -3.66538386078608 -0.49070008010801
 6 -6.26267188838884 -3.65118427932793 -0.17094535513551
 6 -5.84673096179618 -2.24550336483648  0.18909509380938
 6 -8.26738526202620 -4.84915229302930 -0.78990180608061
 6 -4.97405360986099 -4.42285808390839  0.08002602830283
 8 -4.93249499819982 -5.60334087238724 -0.01528102150215
 6 -3.71890561596160 -3.51723228242824  0.50883553075308
 6 -3.29109262016202 -3.73862003750375  1.84643435643564
 8 -3.79406464656466 -4.27410414521452  2.93081175097510
 8 -1.83291496639664 -3.66199250455046  1.65831577077708
 6 -0.98396691879188 -3.78575366546655  2.92932735793579
 6  2.98379027182718 -1.99180435733573 -1.37874911901190
 6  4.10134390179018 -1.01627862896290 -1.17763329562956
 6  5.00276103150315 -0.68023489488949 -1.91875807740774
 6  5.32285626942694 -1.35120825552555 -3.12199918211821
 6  5.99989381398140  0.33486583368337 -1.44765132363236
 6  7.36738543254325 -0.27616339843984 -0.96480321762176
 6  8.42775533583358  0.76827246184618 -0.59498797929793
 6  9.79883297269727 -0.05510243054305 -0.10810911661166
 6  9.42438995529553 -0.67000581528153  1.21281565036504
 6  10.96783911391139  0.84233908810881 -0.05598075967597
 6  12.35403067356736  0.02837414461446 -0.05145683448345
 6  13.58965050765076  0.95632290699070  0.18553145154515
 6  15.12731906710671 -0.04728145004500  0.46034069616962
 6  15.05994098219822 -0.54541682218222  1.97447737173717
 6  16.19041867026703  0.96692159415942  0.33739694499450
 6  17.54249372747275  0.46889211361136 -0.04421129502950
 6  18.65959550695070  1.52856004720472 -0.31607175397540
 6  20.03154535563556  0.84526302110211 -0.33333341704170
 6  20.07410721202120  0.05237066736674 -1.64559035023502
 6  21.09999716861686  1.89116053405341 -0.27532262816282
 1 -3.66114675297530  3.39743099409941  1.31451085278528
 1 -9.70747472997300  4.18020710581058 -0.26807044094409
 1 -9.96840933253325 -2.27298769806981 -1.44240706660666
 1 -2.23978649544955 -0.90463808160816  2.02582263056306
 1 -1.92723206180618  1.48427890409041  0.77955440884088
 1 -1.38540992469247  0.79470778517852  3.07507821892189
 1 -2.62759093299330  2.30931950835083  3.11049716751675
 1 -3.03879621212121  0.88377626292629  3.59753562266227
 1 -1.88351737203720 -2.08844011701170 -0.57290507730773
 1 -1.62788795779578 -0.63378485138514 -0.86095588638864
 1  0.06414441274128 -0.18106954025403  1.00696656185618
 1  0.14342062226223 -2.00518685248525  0.90976120822082
 1 -4.42346687708771  6.07068489638964  0.04602956065607
 1 -5.54273455405541  6.73391606750675  1.26863376947695
 1 -4.34369539773977  5.50596955795580  1.90978875117512
 1 -9.10293330743074  5.92019712891289 -0.15714209000900
 1 -12.28454800840084 -1.77851871937194 -0.30523495069507
 1 -13.31085730073007 -0.21110471067107 -0.80852848924892
 1 -13.45820364346435 -1.50231234663466 -2.74562167926793
 1 -12.25049201300130 -0.42333491199120 -3.40868303780378
 1 -11.72845967036704 -2.06153947094710 -3.09679628702870
 1 -8.84870405370537 -4.71361791739174 -1.66187841584158
 1 -7.48722393699370 -5.67476748934894 -0.92336198809881
 1 -8.96728400840084 -5.14586654785478  0.08206281578158
 1 -2.91583116451645 -3.72718644354435 -0.15723403020302
 1  3.57322893829383 -3.10582785658566 -1.19660537763776
 1  2.36566085488549 -2.28476439143914 -2.36897713301330
 1  4.03283061076108 -0.07674042244224 -0.34899129752975
 1  4.60611366836684 -0.99848332083208 -3.80840095509551
 1  6.16947052545255 -1.37674635003500 -3.67411863576358
 1  4.94347817521752 -2.40613322762276 -3.21582576637664
 1  6.24510493239324  1.20297563496350 -2.26717933513351
 1  5.70666577597760  0.87196274407441 -0.53534779817982
 1  7.10623180208021 -0.91593979107911 -0.12854113251325
 1  7.82190758915891 -0.89016780708071 -1.80587006290629
 1  8.94371650305030  1.46350694549455 -1.28292107740774
 1  8.15954445254525  1.48297348554855  0.08855456385638
 1  10.34739718681868 -0.63266070977098 -0.65565272287229
 1  8.51597384168417 -1.38881769746975  1.31371973277328
 1  10.33643971337134 -0.87108098929893  1.79022091349135
 1  9.18437164876488  0.05884466206621  2.02300360546055
 1  11.36794043184318  1.37779053895390 -1.25027219881988
 1  10.85921566816682  1.33839271487149  0.35879976027603
 1  12.20486802900290 -0.90405284478448  0.48225190849085
 1  12.35401755575558 -0.56183440404040 -1.18614161166117
 1  14.15666053605361  1.61166071107111 -1.12245114971497
 1  13.36495854065406  1.96361061236124  0.75416120552055
 1  15.40995242104210 -0.72036955295530 -0.24655284648465
 1  14.61368126802680  0.26148654415442  2.74012678567857
 1  14.31329860336034 -1.07052472437244  2.31700919901990
 1  15.98012504560456 -0.95904948804881  2.38856533423342
 1  15.78560969586959  1.37194718811881 -0.47716769146915
 1  16.32356638923892  1.53508304380438  1.21306963016302
 1  18.05286660176018  0.04085725632563  0.65666585328533
 1  17.31902942714271 -0.05974780558056 -0.99548092549255
 1  18.53525853295330  2.29110565836584 -0.83838682698270
 1  19.33074307040704  1.98004191109111  0.52090876137614
 1  19.97776033723373  0.25962880908091  0.57750110091009
 1  19.82646096409641  0.67848289788979 -2.20969309450945
 1  20.91989627962796 -0.48738053985398 -1.69896402980298
 1  18.82718544554455 -0.64422214061406 -1.80927900260026
 1  20.85031180978098  2.69588916801680  0.55080583418342
 1  21.99512725302530  1.52524910761076 -0.20108282328233
 1  21.15448210111011  2.60086757395740 -1.00772556885689
 1 -0.00062568766877 -4.45460821022102  2.62226057405740
 1 -1.47144682568257 -4.77829510321032  3.22183281988199
 1 -1.16184019731973 -2.59173765086509  3.62057621082108
 8 -11.89818819311931  3.75434023322332 -1.09466127982798
 1 -12.84849536103610  2.01164240434043 -1.30145075007501

