%nproc=4
%Mem=4GB
# td=(NStates=1) iop(3/107=0140000000,3/108=0140000000) iop(3/107=0140000000,3/108=0140000000) CAM-B3LYP/6-31G(d,p) 

TD

0 1
12 -5.56707821442144  1.14596947124712  0.17165577077708
 6 -5.07320770797080 -2.03950241354135 -0.33462032883288
 6 -3.37188597769777  1.13061334613461  2.75348072137214
 6 -6.16514531023102  4.45376864106411  0.67848805760576
 6 -7.99821558865887  1.20082093279328 -2.43943161666167
 7 -4.40896514981498 -0.28808700050005  1.08589992879288
 6 -4.30160368786879 -1.65604930653065  0.63712606220622
 6 -3.37265038953895 -2.32024532733273  1.49665402910291
 6 -2.96299947094709 -1.33928681958196  2.66001255735574
 6 -3.54073150055005 -0.08861148884888  2.11830641584158
 6 -3.49229226862686 -1.72936637803780  4.01831453085309
 6 -2.09806499969997 -2.77613502280228  0.64493979947995
 6 -1.12106374987499 -3.62826040664066  1.33804739273927
 6  0.18468356885689 -3.84825866656666  0.63420161486149
 8  0.46677674197420 -3.48155546914691 -0.49277551175118
 8  1.00979782548255 -4.61028064536454  1.30280488778878
 7 -4.87893871017102  2.59675905280528  1.49342957465747
 6 -3.96195828562856  2.38786620832083  2.38659926322632
 6 -3.67236674037404  3.67243574577458  3.12732328852885
 6 -4.64924547724773  4.48495002330233  2.62822209350935
 6 -5.24692079627963  3.95168326352635  1.53504959725973
 6 -2.82146750985099  3.79207658345835  4.28539272867287
 6 -4.70124665526553  5.98909633013301  2.90214971977198
 8 -3.99409945794579  6.60990887888789  3.68895279517952
 7 -6.84375817571757  2.58003789958996 -0.63891554785479
 6 -6.97335004980498  3.88716833403340 -0.30507219591959
 6 -7.93710889728973  4.61760848564856 -1.19521363086309
 6 -8.31918137143714  3.61315824572457 -2.14728367276728
 6 -7.68613750425042  2.40131614041404 -1.70347629412941
 6 -8.27794078497850  6.01275118451845 -1.08108761756176
 6 -9.35644000730073  3.85203560176018 -3.26369100190019
 6 -8.61579303300330  4.25106325252525 -4.63833023702370
 7 -6.37148556755676 -0.11930694839484 -1.11708680068007
 6 -7.38580811041104 -0.00561663026303 -2.03963817451745
 6 -7.66065357255726 -1.33052475607561 -2.69757227982798
 6 -6.79215876467647 -2.21745131693169 -1.95489165486549
 6 -6.11484990039004 -1.44024758985899 -1.06166229662966
 6 -8.63741919971997 -1.67049717571757 -3.75154205040504
 6 -6.20114378147815 -3.58311389528953 -1.97605116021602
 8 -6.56362075757576 -4.53877157555756 -2.64554081918192
 6 -4.97687624972497 -3.45237328992899 -0.90702302210221
 6 -5.37024450185018 -4.60083552465247  0.11034470627063
 8 -5.86388215981598 -4.47189619771977  1.23390975437544
 8 -5.11324102230223 -5.87590878727873 -0.37826097069707
 6 -5.33685124932493 -6.97799965326533  0.44878670847085
 6  2.27984895809581 -4.97959908010801  0.60566452085209
 6  3.39166370137014 -4.09646980788079  1.02216011581158
 6  4.05701509170917 -3.21654452455246  0.19253288828883
 6  3.78359269816982 -2.90225516681668 -1.23783328782878
 6  5.25288171397140 -2.46490153775378  0.82802660146015
 6  6.66010088138814 -2.69087201240124  0.09971143854385
 6  7.71542686628663 -1.84264361986199  0.72407809830983
 6  9.03251407270727 -2.01248608220822 -0.14556233873387
 6  9.60063644534453 -3.40684132453245 -0.10746420412041
 6  10.01222180128013 -0.94155439283928  0.38755127062706
 6  11.26314361676168 -0.86176578347835 -0.28962772897290
 6  12.27879556815681  0.30000462796280  0.21392824042404
 6  13.58324077987799  0.47626249614961 -0.54285904910491
 6  14.56055435443544 -0.53836323892389 -0.31444559545955
 6  14.17454339393939  1.90064623622362 -0.17515677047705
 6  15.52037622802280  2.16324435263526 -0.93605860086009
 6  16.00786337073707  3.58999375217522 -0.66440705390539
 6  17.33621887098710  3.89293713531353 -1.44002793799380
 6  17.27060965066507  4.00861575327533 -2.92817504170417
 6  18.05811521762176  5.04155942124212 -0.77641710061006
 1 -2.67253297609761  1.05826010141014  3.52483295169517
 1 -6.24424240304030  5.48801418181818  0.91942093379338
 1 -8.98370877807781  1.21556185908591 -3.13902938173817
 1 -3.81530259505951 -3.12034735013501  2.16061412221222
 1 -1.97631475537554 -1.26292395399540  2.77959923602360
 1 -3.13077285638564 -2.74179734093409  4.42041558555856
 1 -3.26561735443544 -1.08230813521352  4.78967099689969
 1 -4.68376088778878 -1.66614569546955  4.04512846334633
 1 -2.26799211291129 -3.43569308660866 -0.23339396319632
 1 -1.55074290669067 -1.79094821112111  0.16401452305231
 1 -0.68402383588359 -3.14476577217722  2.24077829652965
 1 -1.72774749634964 -4.57938506970697  1.72299409740974
 1 -1.84391450525052  3.70263978837884  3.93220913061306
 1 -3.15088607870787  4.85975318131813  4.78111436913691
 1 -2.97374036903690  2.93247424492449  5.03674868086809
 1 -5.57643070697070  6.57771196559656  2.47709303070307
 1 -9.81127026052605  2.86145680278028 -3.48932218391839
 1 -10.27997879577958  4.41370521462146 -2.96347663836384
 1 -9.51702150195019  4.47010542454245 -5.43545874817482
 1 -8.04943445284528  5.09964971037104 -4.35933588858886
 1 -8.02171202020202  3.36380573937394 -4.91842176697670
 1 -8.27661525112511 -1.48449899279928 -4.80993199149915
 1 -8.67354833783378 -2.82372577767777 -3.77698033503350
 1 -9.63868394789479 -1.38656547994800 -3.66810371707171
 1 -4.02955031243124 -3.72643747034703 -1.37707099399940
 1  2.57944907790779 -5.94344228722872  1.00506646354635
 1  2.13952469586959 -5.06686366246625 -0.43080653025303
 1  3.72077419971997 -4.16872615441544  1.98402340994099
 1  2.81715670237024 -2.84316993809381 -1.56219876087609
 1  4.26439105240524 -1.84515807510751 -1.37601007150715
 1  4.34994716871687 -3.49121285048505 -2.09340826672667
 1  5.11106114701470 -1.38035445944595  0.71335321882188
 1  5.30903943124312 -2.57249888228823  1.94056893719372
 1  6.95538306500650 -3.85950914301430  0.16239412341234
 1  6.42832299269927 -2.62149975897590 -1.08336893239324
 1  7.52621155245525 -0.94234755985599  0.92407965346535
 1  7.91495359825983 -2.14928151125112  1.87176156145615
 1  8.97207131643164 -1.76371464666467 -1.20134347244724
 1  8.95594011271127 -4.16982575397540 -0.69475326772677
 1  10.69822916371637 -3.50797499959996 -0.41964207770777
 1  9.67990705210521 -3.68423951545154  1.06983742644264
 1  9.39769892049205 -0.06560083388339  0.34579994379438
 1  10.08685878337834 -1.33022955685569  1.38377791779178
 1  11.91060620192019 -1.79758979087909 -0.17521189438944
 1  11.39559564626463 -0.80138304320432 -1.33023435703570
 1  11.72759379287929  1.20737516671667  0.18317876267627
 1  12.46654147744774  0.03906509790979  1.35972425262526
 1  13.24125092579258  0.55929036133613 -1.56588882758276
 1  14.87001633993399 -0.63953216591659  0.68455413541354
 1  14.19235480648065 -1.73675269156916 -0.77408372987299
 1  15.55491648004801 -0.33716691489149 -0.97987487998800
 1  13.41875006920692  2.64697931703170 -0.54509629732973
 1  14.31030773107311  1.81765205440544  0.68635584948495
 1  16.44917657345735  1.54364297699770 -0.76530302100210
 1  15.23799938333834  2.00845475827583 -2.14319569926993
 1  15.15254665926593  4.37900327832783 -1.04461645974597
 1  16.29767253735374  3.65670231163116  0.43605350575058
 1  17.96079976137614  3.02067355855586 -1.12523160276028
 1  16.59947066746675  4.85487201610161 -3.07798015781578
 1  18.42390831433143  4.23883339663966 -3.17082168726873
 1  17.11795199539954  3.01337240724072 -3.54961299589959
 1  18.07465351255125  5.13307452495250  0.45511717591759
 1  19.01085860816082  5.16097024922492 -1.38711562596260
 1  17.53878542944294  5.98361786488649 -0.82768682998300
 1 -4.73578888028803 -7.70618005110511 -0.04985852355236
 1 -6.37903233353335 -7.17448453505351  0.40923443094309
 1 -4.87114528312831 -6.79066064166417  1.43990844744474
 8 -7.86291388298830  6.78639514031403 -0.33149093309331
 1 -8.95323362046205  6.47135278017802 -1.79512519531953

