%nproc=4
%Mem=2GB
# td=(NStates=1) iop(3/107=0140000000,3/108=0140000000) iop(3/107=0140000000,3/108=0140000000) CAM-B3LYP/6-31G(d,p) 

TD

0 1
12 -6.78001057315732  0.68629777387739  0.19544716421642
 6 -4.65643274977498 -1.91983040484048  0.25456573357336
 6 -4.37479929532953  2.81721335443544  0.93607648924893
 6 -9.13374607930793  3.07554157825783 -0.02746224792479
 6 -9.39868796639664 -1.82043507310731 -0.51064112281228
 7 -4.79302437433743  0.31203060076008  0.60960999309931
 6 -3.97899516511651 -0.88116782358236  0.60187074247425
 6 -2.48948236683668 -0.45580733993399  0.96594865716572
 6 -2.46709667546755  1.07054720352035  1.21376353885389
 6 -3.86386264916492  1.38964905010501  0.81601637633763
 6 -2.24689097479748  1.50872266816682  2.59527409020902
 6 -1.63946269466947 -0.83173573697370 -0.44319299299930
 6 -0.17699581788179 -1.14960666726673  0.11192026552655
 6  0.76372745194519 -1.10482771967197 -1.00708888268827
 8  0.54090415851585 -0.63231584408441 -2.08383937413741
 8  1.67382766936694 -1.98110840944094 -0.58620354285429
 7 -6.68154989718972  2.60717108710871  0.25082883078308
 6 -5.51747230813081  3.27088573177318  0.67791408760876
 6 -5.81657587278728  4.87453713851385  0.62077694629463
 6 -7.19194990839084  4.85990208070807  0.36429301260126
 6 -7.70587229112911  3.44243305170517  0.21979681108111
 6 -4.93392831313131  5.92028945944594  0.99364703270327
 6 -7.91999356065607  6.03238015811581 -0.00885136143614
 8 -7.51945586178618  7.28734035063506  0.12693054985499
 7 -8.82962651615161  0.56749760896090 -0.19370201930193
 6 -9.61732540494049  1.66392112741274 -0.24979603190319
 6 -11.03279991029103  1.33229310041004 -0.54245002620262
 6 -11.02913727122712 -0.02559165476548 -0.69891074657466
 6 -9.65964762806280 -0.41624978817882 -0.50827290399040
 6 -12.10382715801580  2.27547374047405 -0.55615026582658
 6 -12.24683780428043 -0.90503406570657 -0.97445557925793
 6 -12.36475333743374 -1.10520268546855 -2.67955074977498
 7 -6.92010849374938 -1.31928448974898  0.03142049754976
 6 -7.94668733033303 -2.24942493919392 -0.38834203220322
 6 -7.63724130923092 -3.63109043144314 -0.43204421452145
 6 -6.23822944414441 -3.66181534243424 -0.01947020762076
 6 -5.98955524422442 -2.23316213071307  0.23328951325133
 6 -8.50944946844684 -4.65180255805581 -0.71189400530053
 6 -5.11214741924192 -4.24313011111111  0.07643566926693
 8 -4.84056580528053 -5.49859039733973  0.07070757735774
 6 -3.91950567596760 -3.28827938713871  0.35012966016602
 6 -3.18695220612061 -3.51770794629463  1.70196990999100
 8 -3.74398963906391 -3.79444617941794  2.78146681648165
 8 -1.70252192709271 -3.33524983028303  1.66044598379838
 6 -0.97433595569557 -3.66494158425843  2.83690811601160
 6  2.78262015481548 -2.03037821472147 -1.57315855995600
 6  3.89248301570157 -1.13262026312631 -1.33047858015802
 6  5.11641239663966 -1.01363823522352 -1.91675787738774
 6  5.42223620742074 -1.79361249594960 -3.19421640384038
 6  6.22803662826283  0.00550289738974 -1.79458601710171
 6  7.51448014201420 -0.80484626672667 -1.00794753205321
 6  8.61547410771077  0.16281191579158 -0.45791427192719
 6  9.94001709110911 -0.38785570587059 -0.05818412411241
 6  9.54231174747475 -1.10103891859186  1.15368973777378
 6  11.07646997699770  0.51484633883388  0.20835567396740
 6  12.47729299979998 -0.32555124792479  0.45676398759876
 6  13.53880542314231  0.75838311301130  0.42993589198920
 6  14.95103143834383  0.33738701680168  0.58592325442544
 6  15.03889887798780 -0.13074535503550  2.02117204120412
 6  15.90968059645965  1.44412931493149  0.24558776407641
 6  17.23535301340134  0.79449467386739  0.04628775487549
 6  18.47304685208521  1.79504669586959 -0.09764991179118
 6  19.98756095719572  0.93192168696870 -0.08516860056006
 6  20.13264306560656  0.13997942824282 -1.32143793499350
 6  21.02892006090609  2.18402982098210 -0.21223631953195
 1 -3.32563320162016  3.55056630763076  0.95634503620362
 1 -9.71169515201520  3.85054413951395 -0.27594122802280
 1 -10.32272476407641 -2.21188158745875 -0.68775160106010
 1 -1.89738225502550 -0.86676429422942  2.15664571287129
 1 -1.60368970757076  1.67500797699770  0.30755720912091
 1 -0.89396077977798  1.47323563796380  2.68751946304631
 1 -2.33536171007101  2.62700127652765  2.79041515931593
 1 -2.74647698019802  0.77541542684268  3.18205407450745
 1 -1.91843086338634 -1.61259253225322 -1.04090187698770
 1 -1.71535670467047  0.08279680678068 -1.15448523932393
 1  0.30572857115712 -0.17368880218022  0.65273113831383
 1 -0.35912963276328 -1.96506284008401  1.16335656775678
 1 -3.99951448184818  5.76990481838184  0.50912587028703
 1 -5.24830511111111  6.97261993789379  0.60952785888589
 1 -4.97019804800480  6.09824878587859  2.20615838813881
 1 -8.83969698379838  5.51032614181418 -0.36274265006501
 1 -11.87438699229923 -1.78400926842684 -0.69208363556356
 1 -13.41513772877288 -0.34926852705271 -0.65930356675668
 1 -12.87135495859586 -1.77339945534553 -3.09312642974297
 1 -12.31311827562756  0.01830925242524 -3.02919508900890
 1 -11.37325414981498 -1.46417973497350 -2.85967257465747
 1 -9.00503968726873 -4.34272082768277 -1.35083731173117
 1 -8.28901411601160 -5.47816782938294 -1.27627727962796
 1 -8.88403568356836 -4.62768472967297  0.08526313581358
 1 -3.14486406780678 -3.44468819371937 -0.35702400920092
 1  3.34137575297530 -2.87898517231723 -1.35062077917792
 1  2.75059934873487 -2.26016193119312 -2.80223045834583
 1  3.82925025272527 -0.46238898729873 -0.60934733313331
 1  4.70203326032603 -2.03768724122412 -4.08678879387939
 1  6.02507608600860 -1.54635331073107 -3.57437866176618
 1  5.71469529692969 -2.91516413071307 -2.96717090089009
 1  6.63997441934193  0.75995133253325 -2.58053067026703
 1  5.63338844824482  0.80557610541054 -1.16333059645965
 1  7.10741192009201 -1.49003720082008 -0.03347162556256
 1  8.15052045044505 -1.75945473577358 -1.87842731863186
 1  8.79521165256526  0.84804539933993 -1.15110789608961
 1  8.11641013911391  0.96486167436744  0.40978668706871
 1  10.37598004510451 -1.14124156785679 -0.78686584418442
 1  8.35977822212221 -1.63764257995800  1.11158951975197
 1  10.29334540394039 -1.91882576377638  1.51601349274928
 1  9.33971718331833 -0.46731795419542  1.94717602270227
 1  11.11803544134413  1.33074583448345 -0.76302347394739
 1  10.57106685328533  1.32507138273827  0.94714859515952
 1  12.25266280848085 -0.71468390789079  1.38745242854285
 1  12.24122627662766 -0.86125434603460 -0.33329632713271
 1  13.38972384238424  1.29677922292229 -0.52265116971697
 1  13.06062810761076  1.58436268756876  1.25823161256126
 1  14.94739616541654 -0.67076459245925  0.01755356415642
 1  14.30757065696570  0.66616701220122  2.79498227122712
 1  14.49823709720972 -1.25317298919892  2.27827532563256
 1  16.14222125522552 -0.64086766986699  2.18833531123112
 1  15.83511464636464  2.30032002540254 -0.48195817051705
 1  16.02376640924092  1.98481801730173  1.07020534373437
 1  17.34624593969397  0.13179635023502  0.73856404310431
 1  17.30238776297630  0.25628379757976 -0.65297667506751
 1  18.64872988008801  2.46491303910391 -0.94510749904990
 1  18.56764676077608  2.47092099899990  0.59762643314331
 1  20.07617017821782  0.30239308550855  1.06763011381138
 1  19.85468378637864  0.89714476407641 -2.59569169436944
 1  20.94426871687169 -0.43187498929893 -1.27969210261026
 1  19.46908963596360 -0.79324704310431 -1.22597067176718
 1  21.23074985358536  2.64407398649865  0.94265501910191
 1  22.06445418571857  1.55735231793179 -0.65330804580458
 1  20.81275792869287  2.88311579877988 -1.07909270557056
 1 -0.44939056415642 -4.11776452585259  2.20665901390139
 1 -1.29375905690569 -4.58357563126313  3.47062769936994
 1 -0.81900591389139 -3.02342081918192  3.66468062126213
 8 -12.02254062836284  3.50745554475448 -0.72073388708871
 1 -13.42993350485049  1.79909114921492 -0.35016562156216

