%nproc=4
%Mem=4GB
# td=(NStates=1) iop(3/107=0140000000,3/108=0140000000) iop(3/107=0140000000,3/108=0140000000) CAM-B3LYP/6-31G(d,p) 

TD

0 1
12 -5.51800330693069  1.23333820812081  0.09970857605761
 6 -5.06149653685369 -2.10622908620862 -0.45541240804080
 6 -3.32541133023302  1.20338062286229  2.71773714701470
 6 -6.19568836453645  4.52212547674767  0.70584079287929
 6 -8.01960772787279  1.24290514121412 -2.38421609510951
 7 -4.35285953925393 -0.24403259505951  1.09486082488249
 6 -4.30503403090309 -1.55578928052805  0.64821717131713
 6 -3.34111723622362 -2.39511281408141  1.44652901660166
 6 -2.92224539553955 -1.42684557545755  2.57114367046705
 6 -3.52849027642764 -0.08000062776278  2.16703128832883
 6 -3.46973001240124 -1.76355979737974  3.96199889928993
 6 -2.00838603180318 -2.72794020332033  0.61525683118312
 6 -0.96013765726573 -3.49042662326233  1.42754634263426
 6  0.33956905740574 -3.84297813851385  0.69476767146715
 8  0.57726779107911 -3.32529984358436 -0.43578981318132
 8  1.02302914861486 -4.83174279157916  1.25243985128513
 7 -4.99418023432343  2.58608798569857  1.50619085078508
 6 -3.95643773357336  2.45071249294929  2.37816842014201
 6 -3.75925542924292  3.67290579277928  3.10006056225623
 6 -4.59143969666967  4.63552508080808  2.64208347964796
 6 -5.30041614581458  4.01661975717572  1.58492458475848
 6 -2.81360672377238  3.75993336913691  4.19849403880388
 6 -4.60441697229723  6.06919433993399  2.87592709750975
 8 -3.83159320732073  6.53831171917192  3.72400630053005
 7 -6.91769556945695  2.58391828762876 -0.70645230153015
 6 -6.97726044084408  3.90169978717872 -0.30613230193019
 6 -7.95981116751675  4.57702442724272 -1.20344445394539
 6 -8.50749020232023  3.59582651255125 -1.97892683708371
 6 -7.84807369786979  2.36378238703870 -1.68028397489749
 6 -8.40031302220222  5.97208711811181 -1.01570107890789
 6 -9.48602296559656  3.85789618781878 -3.25916054885489
 6 -8.72608406210621  4.18766691289129 -4.47732413641364
 7 -6.28902732173217 -0.11588660636064 -1.21945703770377
 6 -7.37168669826983 -0.06908297689769 -2.10894510521052
 6 -7.65064257145715 -1.37443914751475 -2.63440596319632
 6 -6.68422797159716 -2.16906647844784 -2.09171533723372
 6 -5.97511592699270 -1.36568013311331 -1.27854398479848
 6 -8.66078153595359 -1.64984511051105 -3.77586448264826
 6 -6.09991365846585 -3.65959154305431 -2.05996955205521
 8 -6.45136953245325 -4.61156885528553 -2.66163242834283
 6 -5.12061062316232 -3.52332038463846 -0.92365468526853
 6 -5.33898137553755 -4.55818125922592  0.12035570737074
 8 -5.87124289588959 -4.37523653175318  1.21904826822682
 8 -4.91692139033903 -5.81922311871187 -0.29910305490549
 6 -5.39676724092409 -6.93225507880788  0.42131396119612
 6  2.36985795899590 -5.04946606680668  0.56067002140214
 6  3.43077761276128 -4.13354351525153  1.00455835563556
 6  3.94192358255826 -3.19180205030503  0.22969660466047
 6  3.75074941384138 -2.95732067336734 -1.14932443694369
 6  5.14696112191219 -2.40825587318732  0.73435723452345
 6  6.54385925722572 -2.67200012521252  0.14132559996000
 6  7.68055337893789 -1.86415577107711  0.68412410291029
 6  9.07064788608861 -2.08503333693369  0.13475569306931
 6  9.54315069676968 -3.47877851825183  0.41994853715372
 6  10.12475305440544 -1.06046628402840  0.58716123162316
 6  11.36142344474447 -0.92533214011401 -0.24821358755876
 6  12.29286697529753  0.24955958345835  0.25303215081508
 6  13.49950240604060  0.41749661956196 -0.63686845004500
 6  14.47229552855286 -0.84846424902490 -0.68022217311731
 6  14.34299023862386  1.69527569916992 -0.21269052385239
 6  15.48238242864286  2.15238326652665 -1.10809580458046
 6  16.04238682308231  3.51778653145315 -0.64296490969097
 6  17.33246849594959  3.94075191679168 -1.32540647584758
 6  16.99523211291129  4.17067195889589 -2.85612783698370
 6  17.76854626072607  5.31217648294829 -0.80708016691669
 1 -2.74416013881388  1.26774104950495  3.50850131853185
 1 -6.47434541334133  5.64396977737774  0.88809780148015
 1 -8.77014742194219  1.31062136503650 -3.28369384818482
 1 -3.84005507030703 -3.18550386578658  1.86167422822282
 1 -1.66045316921692 -1.27042470407041  2.53509478557856
 1 -2.85726550565056 -2.62439560076008  4.28544208820882
 1 -3.29525031773177 -0.86454635903590  4.63064509430943
 1 -4.58599111081108 -1.83556263716372  3.80517446794680
 1 -2.25987130083008 -3.58498801610161 -0.11123174697470
 1 -1.62004983738374 -1.84564368066807  0.31073919551955
 1 -0.80805623912391 -2.93266456205621  2.34276849554956
 1 -1.23373809540954 -4.42824995619562  1.84878667666767
 1 -1.91024113791379  3.44428395279528  3.57120303000300
 1 -2.75555654575458  4.71668887488749  4.72489874757476
 1 -3.14081707670767  3.10152114961496  5.10613561956196
 1 -5.37865092899290  6.61202539693969  2.36411173257326
 1 -10.11662079557956  2.91916257335734 -3.46847009870987
 1 -10.21450224812481  4.50143398749875 -3.00179046974698
 1 -9.42433223302330  4.45619403340334 -5.38560376267627
 1 -8.08467797719772  5.08797854325433 -4.31359131413141
 1 -8.03731358035804  3.38173753255326 -4.75779570437044
 1 -8.62552014161416 -0.86458700160016 -4.56278727702770
 1 -8.56269725272527 -2.79886329142914 -4.15749838683868
 1 -9.54138421792179 -1.51715853925393 -3.43859076577658
 1 -4.02633999139914 -3.60813564016402 -1.68211149804980
 1  2.67906903990399 -6.14504244724472  0.93763972087209
 1  2.08141888528853 -5.04572154825482 -0.38945239483948
 1  3.61489361166117 -4.09295857765777  2.05791079867987
 1  2.76446143284328 -3.12331795289529 -1.54464700570057
 1  3.98878349164916 -1.97303086238624 -1.24270674117412
 1  4.54471664566457 -3.64651838103810 -1.78464739063906
 1  4.72730277117712 -1.35651207520752  0.60763264676468
 1  5.34738326562656 -2.73600523292329  1.81994687498750
 1  6.81093862056206 -3.71636482858286  0.33892177617762
 1  6.45363552395239 -2.67558516751675 -0.93822441794179
 1  7.40982991429143 -0.81790511561156  0.58533577907791
 1  7.77333943684368 -1.82322890599060  1.82831721702170
 1  9.02268637793779 -1.88258653385338 -1.04122746084608
 1  9.13694821352135 -4.36492526392639 -0.04835862826283
 1  10.68375771657166 -3.75126932903290  0.04359424592459
 1  9.51196025742574 -3.57787887938794  1.46801724442444
 1  9.51613076367637 -0.12762703650365  0.54588995279528
 1  10.46028612611261 -1.35020155405541  1.42813235323532
 1  11.94489963126313 -1.81157118901890 -0.38249262246225
 1  11.08432451915191 -0.89100200510051 -1.15205653925393
 1  11.73014404790479  1.14732916211621  0.20030047484748
 1  12.48697352065206  0.17233842524252  1.39289756995699
 1  13.10857765846585  0.59605403770377 -1.74295653435344
 1  14.67669700800080 -1.09297751045104  0.31015669566957
 1  14.11548711971197 -1.74971398769877 -1.32118844034403
 1  15.48687967636764 -0.48343154135413 -1.28807570007001
 1  13.60133832803280  2.53156777587759 -0.14292608030803
 1  14.69829652995300  1.52107239643964  0.82606982088209
 1  16.34171582738274  1.50654926762676 -0.99810630133013
 1  15.25572115551555  2.23153706650665 -2.16060744044404
 1  15.31186259085909  4.18803418141814 -0.71019301740174
 1  16.34077684778478  3.46431307270727  0.48565846624662
 1  18.13976765816582  3.26245773697370 -1.30598967856786
 1  16.28457917831783  4.75354188308831 -3.34052641244124
 1  18.08145406890689  4.48120763406341 -3.36323092819282
 1  16.95335553575358  3.07979904990499 -3.46737477207721
 1  17.97087313451345  5.32185340284028  0.34533619781978
 1  18.51764928722872  5.68683283548355 -1.38974588898890
 1  16.86006755765576  6.06100560366037 -1.12479654095410
 1 -5.36902220362036 -7.87453688678868 -0.24597813551355
 1 -6.56022045234524 -6.70401748834884  0.51264477197720
 1 -4.96147431603160 -7.29334090969097  1.60933539013901
 8 -7.81899949154915  6.88253475427543 -0.36205398939894
 1 -9.43821211831183  6.39816546144614 -1.43589927272727

