%nproc=4
%Mem=2GB
# td=(NStates=1) iop(3/107=0140000000,3/108=0140000000) iop(3/107=0140000000,3/108=0140000000) CAM-B3LYP/6-31G(d,p) 

TD

0 1
12 -6.77958053015301  0.58553769786979 -0.01687406790679
 6 -4.57497460396040 -2.05995441724172  0.27661793879388
 6 -4.39593140854085  2.71581321442144  1.13416629822982
 6 -9.00951365606561  3.28111213531353 -0.31672117381738
 6 -9.34471256885689 -1.72665569516952 -0.72492255095510
 7 -4.58688376027603  0.39094849254925  0.50197923002300
 6 -3.96388365396540 -0.86437614441444  0.48142869826983
 6 -2.54361778037804 -0.61833359255926  0.88518058035804
 6 -2.44545451125113  0.89432958175818  1.17617978047805
 6 -3.85995225812581  1.42556264146415  0.87085185988599
 6 -2.10941722742274  1.11880367626763  2.64346890969097
 6 -1.47336608500850 -1.19687225062506 -0.15155382908291
 6 -0.13013113141314 -1.32082378897890  0.44891396489649
 6  0.87716879607961 -1.48541577847785 -0.74077225102510
 8  0.96416648474847 -1.06895950845084 -1.85318630883088
 8  1.87048733533353 -2.31560185878588 -0.28476339883988
 7 -6.66033777597760  2.58319868986899  0.33040678857886
 6 -5.58879944084408  3.18146678987899  0.68456475267527
 6 -5.77545176037604  4.64874455925592  0.72720758935894
 6 -7.07956867026703  4.80911700220022  0.52809939323932
 6 -7.78649035293529  3.59147795619562  0.09152398379838
 6 -4.74573949424942  5.70764819531953  0.98206587458746
 6 -7.77149871117112  6.20991791189119  0.33799332303230
 8 -7.42572648884888  7.30434205080508  0.36251410821082
 7 -8.81734528802880  0.77221808100810 -0.47402005110511
 6 -9.50543421582158  1.88827356265627 -0.42671372367237
 6 -10.89551618191819  1.58394826592659 -0.77010279147915
 6 -10.99536389388939  0.25147605200520 -0.89246010151015
 6 -9.74098576187619 -0.27258542174217 -0.74101617831783
 6 -11.88692546784678  2.63471966506651 -0.77786243704370
 6 -12.16783990449045 -0.52008557085709 -1.19482761646165
 6 -12.37479434153415 -0.46534870007001 -2.81607440214021
 7 -7.08607509040904 -1.37211977327733 -0.33285593009301
 6 -8.10533319491949 -2.24889488618862 -0.57227042504250
 6 -7.61730931603160 -3.56703402580258 -0.48962997309731
 6 -6.22446806800680 -3.65788494939494 -0.30069833043304
 6 -5.92475876457646 -2.20298911341134 -0.11928574427443
 6 -8.66077460096010 -4.77001437923792 -0.63858667456746
 6 -5.09423562806281 -4.48371416951695  0.12674069976998
 8 -4.93185493419342 -5.63773431173117  0.10497100370037
 6 -4.07279100450045 -3.55740629982998  0.44040868806881
 6 -3.59535304620462 -3.65417159265927  1.84527424042404
 8 -4.26495173527353 -3.95099183398340  2.85910458025803
 8 -2.18426010091009 -3.72038834413441  1.75966590579058
 6 -1.62627114921492 -3.88717380748075  3.01547597279728
 6  3.02348424122412 -2.48142331923192 -1.31529277337734
 6  4.09605337273727 -1.54248124922492 -0.80689622192219
 6  5.09801055645565 -1.06596346774677 -1.68268447004700
 6  5.32387637143714 -1.49198233293329 -2.99938692089209
 6  6.11587541214121 -0.04280193309331 -1.12676923542354
 6  7.49503819781978 -0.52748853095310 -0.70200693799380
 6  8.56814937523752  0.40995663026303 -0.27393587408741
 6  9.83767685708571 -0.43244016431643  0.30594228852885
 6  9.58131564786479 -1.02070088478848  1.71982635143514
 6  11.11947427742774  0.62121697589759  0.21401624002400
 6  12.43975924642464 -0.12311100390039  0.52110042124212
 6  13.54368591119112  0.92475975067507  0.39177207560756
 6  14.89145548074807  0.41498477657766  0.47370203230323
 6  15.16148113621362  0.13443116261626  1.93118304230423
 6  16.04048367676768  1.50946584858486  0.04119732503250
 6  17.33213269136914  0.84724994939494 -0.06529340324032
 6  18.51162070947095  1.85961315251525 -0.45123527032703
 6  19.82668486958696  1.19334782958296 -0.77738782248225
 6  19.93383318461846  0.39707513781378 -1.84415020622062
 6  20.89935710461046  2.41384280228023 -0.86015111101110
 1 -4.13856449474947  3.34044529552955  1.67550695239524
 1 -9.91522550505050  4.22160124522452 -0.45835946984698
 1 -10.24690718231823 -2.56077647694769 -0.88919174507451
 1 -2.18322083888389 -1.03380099789979  1.78278832713271
 1 -1.68056739533953  1.40900137633763  0.33628008140814
 1 -1.08118950265026  0.65758407280728  2.75292600370037
 1 -2.11258943284328  2.20795937233723  2.95293141094109
 1 -2.74718705120512  0.78435632093209  3.40353622272227
 1 -2.11129014931493 -2.34409568256826 -0.74627241404140
 1 -1.17318248724872 -0.68698017091709 -1.03215300610061
 1  0.07314531283128 -0.48469990329033  1.09303516871687
 1  0.16627290749075 -2.13589992379238  1.22132236433643
 1 -3.84344887528753  5.39939776767677  0.63914887258726
 1 -5.03030331093109  6.78021069696970  0.49513641974197
 1 -4.57309833803380  6.15465442644264  2.11912968526853
 1 -9.07310032413241  5.63065817501750 -0.08318469426943
 1 -12.18397795139514 -1.64143501100110 -0.67583201040104
 1 -13.12030824582458  0.00108650845085 -0.67916555295530
 1 -13.22667049014902 -0.70553266866687 -2.98934605170517
 1 -12.37838480228023  0.56673409490949 -2.89220138963896
 1 -11.81859868426843 -1.17965128212821 -3.35353196059606
 1 -9.10154933823382 -4.79414597019702 -1.64711693969397
 1 -8.19985520012001 -5.96251626422642 -0.46856650855085
 1 -9.56460374037404 -5.20940290149015  0.13228783828383
 1 -3.25022460386039 -4.11149487438744 -0.23684199099910
 1  3.37030864626463 -3.56638391219122 -0.97169288638864
 1  3.14615890469047 -2.38160407540754 -2.25697593289329
 1  3.91572890059006 -1.17255000340034  0.36189979157916
 1  4.35165822282228 -0.95814928742874 -3.93964407940794
 1  6.39194277267727 -1.47858653405340 -3.45572679657966
 1  5.13117694509451 -2.78743135743574 -3.17418160196020
 1  6.28070849274927  0.82759809720972 -2.03922653985399
 1  5.77883299269927  0.44606015381538 -0.07564182758276
 1  7.57414859375938 -1.05906410351035  0.49654137573757
 1  7.91586698509851 -1.39113790409041 -1.69549902580258
 1  8.77998012941294  1.05904649944994 -1.47115990129013
 1  8.25234373247325  0.98502369056906  0.49511521992199
 1  9.99782222932293 -1.21118856255626 -0.46738389598960
 1  8.61051329562956 -1.59615843154315  1.77586594739474
 1  10.35820188958896 -1.21441532273227  2.35926781818182
 1  9.29596280788079 -0.37486870927093  2.44481578667867
 1  11.22122576037604  1.25267802770277 -0.84638180978098
 1  10.52383212981298  1.18596747234724  1.01705558585859
 1  12.54432197439744 -0.68548098759876  1.56911059435944
 1  12.65694784878488 -0.87947616821682 -0.47633063056306
 1  13.38761363136314  1.14656420142014 -0.28845775037504
 1  13.97941998679868  1.54731898319832  1.15390117951795
 1  15.12567399319932 -0.66111362736274 -0.19527771897190
 1  14.93842374227423  0.92802319781978  2.37036980998100
 1  14.47904517801780 -0.67934560646065  2.01815931403140
 1  15.99984701780178 -0.34562814591459  2.40311678937894
 1  15.77776891179118  2.00872086548655 -1.10160013471347
 1  15.92359639223922  2.27809734523452  0.77031535473547
 1  17.44436575167516  0.36911008160816  0.77382756945695
 1  17.03891141534153 -0.22405423622362 -0.72453383078308
 1  18.14673968106811  2.40148669646965 -1.25759874817482
 1  18.66160615671567  2.52921682858286  0.13809047954796
 1  20.15247780898090  0.55937878407841  0.08952230303030
 1  20.13059137713771  0.96385143474348 -2.78689081428143
 1  20.79386367636764 -0.18138994079408 -1.84766890029003
 1  19.18530125712571 -0.16133385178518 -2.07517559225923
 1  21.03264004260426  2.96087566666667  0.07225797939794
 1  22.02908064836484  2.14742132483248 -1.35208792379238
 1  20.76522317521752  3.40521800900090 -1.62290708700870
 1 -0.65053067816782 -4.01949469886989  2.43083143114311
 1 -1.94999468046805 -4.65614288798880  3.55953659025903
 1 -1.51144515781578 -3.03593207030703  3.64767892109211
 8 -11.72182055635564  3.80364516371637 -0.73397521122112
 1 -13.07107761926193  2.08925016511651 -0.99826043104310

