%nproc=4
%Mem=2GB
# td=(NStates=1) iop(3/107=0140000000,3/108=0140000000) iop(3/107=0140000000,3/108=0140000000) CAM-B3LYP/6-31G(d,p) 

TD

0 1
12 -6.80418299039904  0.67030617471747  0.29524714421442
 6 -4.50154726122612 -1.95669409120912  0.34302457945795
 6 -4.22991480688069  2.77850948404840  0.97449033063306
 6 -9.11199390409041  3.07336136023602 -0.18185768746875
 6 -9.24206230383038 -1.75822885248525 -0.93900395909591
 7 -4.65825089698970  0.41179057675768  0.50105913801380
 6 -4.07270453605361 -0.78850855765577  0.48884944034403
 6 -2.53032645124512 -0.65259701890189  0.89720178247825
 6 -2.47926789258926  1.07298744754475  1.15307747024702
 6 -3.98709497239724  1.46484656985699  0.86924169886989
 6 -2.16988327402740  1.44697649354936  2.66552111491149
 6 -1.60914966336634 -1.09997256065607 -0.27319599329933
 6 -0.07377549584958 -1.20583228982898  0.31513058655866
 6  0.78195927512751 -1.44633187008701 -0.85211338513851
 8  0.74694476257626 -1.01114372687269 -1.92910390059006
 8  1.93135342194219 -2.02331262986299 -0.26774169666967
 7 -6.75801754395440  2.58414878487849  0.44166791469147
 6 -5.56053661456146  3.27360600380038  0.61208750495050
 6 -5.90433464866487  4.86207589238924  0.67299216781678
 6 -7.19242995639564  4.80868695919592  0.39708629192919
 6 -7.82336404030403  3.54051285968597  0.16662149354935
 6 -5.00803572387239  5.93084051455145  1.07091475947595
 6 -8.02198375967597  6.04921184128413  0.43185270897090
 8 -7.47468138433843  7.14940655725573  0.47912576937694
 7 -8.84749830333033  0.72400325952595 -0.28899154825483
 6 -9.57388106050605  1.86927166246625 -0.41187223952395
 6 -10.93004963526353  1.61244111521152 -0.76140192139214
 6 -10.96430078757876  0.19211011541154 -0.92108296379638
 6 -9.70210187348735 -0.30108827202720 -0.57475955265527
 6 -12.03919069436944  2.48308450155016 -0.95051970277028
 6 -12.06212933343334 -0.72557611991199 -1.23726185988599
 6 -12.01500836293629 -0.91076324152415 -2.72995579027903
 7 -6.82819930283028 -1.26150871217122 -0.07942058655866
 6 -8.11357401900190 -2.15798579527953 -0.26613981198120
 6 -7.57316490159016 -3.63586090849085 -0.49170018011801
 6 -6.24433005420542 -3.47391655255525 -0.08329659025903
 6 -5.92412870157016 -2.10446926142614  0.06941312561256
 6 -8.41669019251925 -4.74227160496050 -0.85431824772477
 6 -5.10075628012801 -4.34223002110211  0.20111813751375
 8 -4.84449619831983 -5.43673421172117 -0.16011550495050
 6 -3.95105883128313 -3.31726228542854  0.58108275547555
 6 -3.35560907180718 -3.66313248874887  1.79395910891089
 8 -4.11933717381738 -4.04757149194920  2.77503617341734
 8 -1.78899057395740 -3.54881118641864  1.74894483368337
 6 -1.29400792289229 -3.93473856395640  3.00035446064606
 6  2.96008790159016 -2.45692086898690 -1.23256450055005
 6  4.12406617401740 -1.41232823392339 -0.89844537683768
 6  5.05362611801180 -1.17273414481448 -1.73195939753975
 6  5.35991997579758 -1.72921605630563 -3.12016899909991
 6  6.07045086968697 -0.04746239913991 -1.46381293979398
 6  7.36664535853585 -0.80990677277728 -0.82007874517452
 6  8.53700626092609  0.27914354895490 -0.86152463296330
 6  9.80302339173917 -0.50285720602060 -0.10855916161616
 6  9.49372688898890 -0.75257407210721  1.63919828862886
 6  11.09065139513951  0.37586244044404 -0.11697685928593
 6  12.50155542604260 -0.13156184898490  0.18615692689269
 6  13.41897343994399  0.97794506920692  0.33662656105611
 6  14.83693002820282  0.31695497359736  0.36571123322332
 6  15.15742073017302 -0.13134541504150  1.93617354135414
 6  16.03108273667367  1.35454035603560  0.18259146444644
 6  17.26672615071507  0.71302652705271  0.19473259935994
 6  18.30050959835984  1.69077626882688 -0.34141428822882
 6  19.88700090119012  1.12859135393539 -0.24138422212221
 6  20.15662546384639  0.28452388268827 -1.63015880708071
 6  20.77324449334933  2.41344276227623 -0.49439453535354
 1 -3.47561820012001  3.47099835083508  1.10212961466146
 1 -9.83101708420842  3.51037012211221 -0.25358899279928
 1 -9.90335282688269 -2.44543494279428 -1.11112393829383
 1 -2.35974849164916 -1.01588920672067  1.98914896319632
 1 -1.96533587218722  1.58705918211821  0.34429088248825
 1 -1.08796017971797  1.31413972837284  2.66868757985799
 1 -1.95640381428143  2.62624120052005  2.66393251105111
 1 -3.03901623412341  1.18900678597860  3.29316518561856
 1 -1.86595561586159 -2.06160743374337 -0.94564235103510
 1 -1.61704687368737 -0.30272174507451 -1.08928871967197
 1  0.11911991029103 -0.52132356565657  1.15170103530353
 1  0.04897117731773 -2.09012534633463  1.23970420252025
 1 -4.05921045144514  6.94773260116012  0.30876583428343
 1 -5.80714099469947  6.62768544444444  1.57824473057306
 1 -3.98685971417142  5.00806976797680  1.87582535483548
 1 -9.37160017411741  5.73825893509351  0.14117774197420
 1 -12.16439599319932 -1.61070193769377 -0.58856328352835
 1 -12.99970618561856 -0.21018461866187 -0.86416405280528
 1 -12.83382120522052 -2.07412952835284 -2.90549766686669
 1 -12.06539350315032  0.01742916441644 -3.27940010951095
 1 -11.24463128752875 -1.34495781278128 -3.09872648004800
 1 -9.17415659895990 -4.60147670327033 -1.78668089608961
 1 -7.83704891949195 -5.82371238383838 -0.90428007990799
 1 -9.28228550855086 -5.00678263946395 -0.09530492099210
 1 -3.14691427282728 -3.59557328222822  0.00353204640464
 1  3.13045466086609 -3.44980225402540 -0.83594931203120
 1  2.60416470527053 -2.25456137113711 -2.49875011031103
 1  3.63504083178318 -0.58728147654765  0.08283188478848
 1  4.66350940794079 -1.33254672717272 -3.91507162216222
 1  6.28661223962396 -1.21035971137114 -3.63629485338534
 1  5.24630845824583 -2.95299791409141 -2.79898408220822
 1  6.33074349624963  0.69182451985199 -2.55313793099310
 1  5.89030413981398  0.93561910971097 -0.84301856525653
 1  7.09267044594459 -1.38175637273727  0.23778550015002
 1  7.72615801420142 -1.77936672697270 -1.55648512441244
 1  8.89546167756776  0.63388398319832 -2.04975776107611
 1  8.27928642674268  1.62109729792979 -0.31060535213521
 1  10.33431587868787 -1.45504294799480 -0.65835299289929
 1  8.49875211951195 -1.72395121082108  1.75039340014001
 1  10.58713478287829 -1.17821170237024  2.32042393379338
 1  8.90799401100110  0.12126090369037  2.25378668376838
 1  10.87451108890889  1.05509826972697 -0.81161833343334
 1  10.76175592219222  0.83909278487849  0.63826770707071
 1  12.40982852505250 -0.54994743424342  1.19007269056906
 1  12.69600175417542 -0.98226644724472 -0.62938593609361
 1  13.66090096009601  1.64024356935694 -0.61883078767877
 1  13.50401244604460  1.76280053135313  1.20790658005801
 1  14.84520594639464 -0.41857937393739 -0.39923811501150
 1  15.40366026592659  0.73530392589259  2.76362913591359
 1  14.46626389988999 -0.92826049794979  2.20340783888389
 1  15.99316634973497 -0.72221580468047  1.86477295499550
 1  15.83475461036103  1.67935792919292 -0.73880385508551
 1  16.05725975857586  2.13888342384238  1.16590491369137
 1  17.51236255135514  0.51250442104210  1.18571875857586
 1  17.43892141634163 -0.10021185198520 -0.46490786818682
 1  18.23873888098810  2.09004555235524 -1.70977396569657
 1  17.92088208430843  2.89155306220622  0.30113678417842
 1  20.12528508970897  0.55722856905691  0.84426777757776
 1  20.28220653865386  0.67493254285429 -2.44000612581258
 1  21.28848313831383 -0.36376817861786 -1.41783591699170
 1  19.37867059405941 -0.32474019241924 -1.62579065376538
 1  20.70625740434043  3.51486106520652  0.36454720832083
 1  21.73641138143815  2.10157674037404 -0.26943965896590
 1  20.28195484838484  2.79356684388439 -1.26995179147915
 1 -0.00073569866987 -3.94220697009701  2.84624297229723
 1 -1.64747442844284 -4.77032430613061  3.56010664726473
 1 -1.51940595389539 -2.76499497659766  3.64344849804980
 8 -11.93828220252025  3.67962276147615 -0.87403921762176
 1 -13.26846735823582  2.25242648274827 -1.05428603360336

