%nproc=4
%Mem=4GB
# td=(NStates=1) iop(3/107=0140000000,3/108=0140000000) iop(3/107=0140000000,3/108=0140000000) CAM-B3LYP/6-31G(d,p) 

TD

0 1
12 -5.56186769336934  1.15339021332133  0.15201380658066
 6 -5.01177156435644 -2.04184264756476 -0.45385225202520
 6 -3.45681447054705  1.20915119991999  2.63691906520652
 6 -6.32332112781278  4.50883414761476  0.74151436023602
 6 -7.85930169726973  1.22163301400140 -2.52427010051005
 7 -4.33294754805481 -0.26833502530253  0.95120645944594
 6 -4.22321584908491 -1.56530023162316  0.62069441904190
 6 -3.18835195969597 -2.27437073987399  1.48347271097110
 6 -2.92312548354835 -1.21147403830383  2.55350190629063
 6 -3.54785221262126  0.03957132943294  1.94071865706571
 6 -3.61337437683768 -1.67968140954095  3.91614431383138
 6 -1.96953214641464 -2.66588399769977  0.77139244474447
 6 -0.95142678617862 -3.57496507710771  1.43544713271327
 6  0.26992209270927 -3.82720656135614  0.61559975467547
 8  0.48199826412641 -3.39131644524452 -0.52358859305931
 8  1.08755560126013 -4.72995261256126  1.20783539083908
 7 -4.92983379967997  2.65733511041104  1.42632286398640
 6 -4.02586467626763  2.46189361106111  2.34562516581658
 6 -3.82368187188719  3.71245974817482  3.18518907510751
 6 -4.64282483518352  4.58050957925793  2.64812408370837
 6 -5.40110621482148  3.96147424262426  1.56009210151015
 6 -2.86960232333233  3.70337771357136  4.25990017941794
 6 -4.82294882548255  6.00010743124312  3.07514701950195
 8 -4.27299734773477  6.50235812381238  4.00165406530653
 7 -6.91378517841784  2.60828072387239 -0.66658831513151
 6 -7.04272698749875  3.90801041824182 -0.27252894159416
 6 -7.95873105950595  4.66079280408041 -1.16674078357836
 6 -8.46072552585258  3.66776370627063 -2.00853979837984
 6 -7.80126901740174  2.33933994279428 -1.78157410391039
 6 -8.45819881078108  6.01009091849185 -0.99529903870387
 6 -9.46145050835084  3.90627102530253 -3.13752838563856
 6 -8.73862531623162  4.08045619181918 -4.48361476547655
 7 -6.29482790179018 -0.16218123582358 -1.25091018301830
 6 -7.22283181278128  0.01889582098210 -2.20544475517552
 6 -7.52759026622662 -1.33382508610861 -2.77050957355736
 6 -6.73332288108811 -2.21723129492949 -2.12295846154615
 6 -5.94645306070607 -1.49403296839684 -1.18652478287829
 6 -8.58118357615762 -1.65032515851585 -3.88797569376938
 6 -6.20567423452345 -3.62715829972997 -1.99006256135614
 8 -6.54977937343734 -4.54346204460446 -2.68536480158016
 6 -5.07826638873887 -3.63081113371337 -0.90018233803380
 6 -5.41247872527253 -4.57589303040304  0.21221489328933
 8 -5.77888365996600 -4.39137814591459  1.29107547094710
 8 -5.17187688588859 -5.82521371777178 -0.27610075467547
 6 -5.28649621382138 -6.94141599489949  0.57323915371537
 6  2.29751072427243 -5.08770989118912  0.53323727812781
 6  3.38820335533553 -4.09308946984698  0.91625952575258
 6  4.06261565176518 -3.17919078917892  0.06372000700070
 6  3.79975431433143 -3.13234817611761 -1.34128363286329
 6  5.23947037283728 -2.40203525112511  0.71725552435244
 6  6.50030490179018 -2.63300622582258  0.15998746614661
 6  7.77030235383538 -1.73196255175518  0.79748543904390
 6  9.13425424672467 -1.94781961556156  0.13655587308731
 6  9.66311269296930 -3.40996163656366  0.33105964826483
 6  10.13865444454445 -0.98399863726373  0.58929144464446
 6  11.50253755615562 -0.88643825072507 -0.19483825002500
 6  12.34259194779478  0.29618424592459  0.26478332593259
 6  13.69685214101410  0.36103097299730 -0.61740650385039
 6  14.63784208320832 -0.80127953055306 -0.29930408130813
 6  14.29420536013601  1.75676184778478 -0.20325958075808
 6  15.31247543794379  2.18907693589359 -1.18817381238124
 6  15.97576016041604  3.51315606840684 -0.84104471767177
 6  17.36575182428243  3.83717155875588 -1.47843177837784
 6  17.32535512521252  3.91093598529853 -3.00450267446745
 6  18.05853525962596  5.10985625092509 -0.83890334923492
 1 -3.05387110991099  1.35248952435244  3.39387985638564
 1 -6.46657463626363  5.65770115051505  0.81629062076208
 1 -8.44407481468147  1.22021232413241 -3.32351783058306
 1 -3.71525259005901 -3.27246256165617  1.88483654445445
 1 -1.89953707760776 -1.24755241684168  2.58827010311031
 1 -3.05653543264326 -2.67160032123212  4.11189473347335
 1 -3.57693848654865 -1.05924582898290  4.77230926072607
 1 -4.76755926762676 -1.96725580648065  3.73100705120512
 1 -2.14803011671167 -3.05746526382638 -0.15849647344734
 1 -1.47843567596760 -1.62697181348135  0.46010413201320
 1 -0.71702713621362 -3.24134543014301  2.44195841454145
 1 -1.55806052765277 -4.60188731993199  1.82010380838084
 1 -1.82665277907791  3.35133465786579  3.91837774747475
 1 -2.75640663076308  4.65938314431443  4.47056331403140
 1 -3.24739773477348  3.35785678317832  5.32564757075708
 1 -5.59716278017802  6.70497469186919  2.54548987038704
 1 -10.03357249074907  2.98621927902790 -3.39288253995399
 1 -10.10622142004200  4.70982482658266 -2.88380867156716
 1 -9.28868866866687  4.33782219621962 -5.52495769806981
 1 -8.18765827522752  5.00735048044805 -4.38136809180918
 1 -8.08841869086909  3.09697905670567 -4.48751867666767
 1 -8.46940453005301 -1.43756429932993 -5.08032903120312
 1 -8.90929191219122 -2.67911131623162 -3.85633827082708
 1 -9.61928200770077 -1.27883470687069 -3.59526643334333
 1 -4.36159351675168 -3.88942376897690 -1.43311659855986
 1  2.57706883988399 -6.05648359135914  0.97364332123212
 1  2.25448619201920 -5.17109408550855 -0.50514396399640
 1  3.85674779707971 -4.08095737753775  2.11857686528653
 1  2.88076306300630 -3.37612323342334 -1.56513905490549
 1  4.01607622092209 -2.19767332663266 -1.65570804130413
 1  4.54805697969797 -3.68010173937394 -2.16619554545455
 1  5.02610265116512 -1.13119954395440  0.64303618711871
 1  5.27986651395140 -2.60544217661766  1.73076795709571
 1  6.70602812951295 -3.72474566666667  0.29903778777878
 1  6.57912807320732 -2.48030563956396 -0.89180977647765
 1  7.40159909120912 -0.76355968106811  0.71739898539854
 1  7.70736283918392 -2.03201978507851  1.90727511281128
 1  8.97972208150815 -1.74548282348235 -0.82666600470047
 1  9.17532205090509 -4.30123889528953 -0.17339113151315
 1  10.65764510531053 -3.56567076917692 -0.05292540604060
 1  9.78330739213921 -3.38102919441944  1.41457189988999
 1  9.50960011061106 -0.09112338613861  0.76128149194920
 1  10.51967206470647 -1.14167070097010  1.63360290029003
 1  12.07655279657966 -1.88190822272227  0.03099872667267
 1  11.12700878757876 -0.77548045294529 -1.29363069666967
 1  11.63871490499050  1.01932636183618  0.10269071387139
 1  12.58575339863986  0.27140833223322  1.29345762596260
 1  13.46595339603960  0.40607503980398 -1.56033827252725
 1  14.98719805810581 -0.91811002370237  0.70715639563956
 1  14.25061063206321 -1.73350236653665 -0.61852817431743
 1  15.57325831423142 -0.86699989818982 -0.84095098759876
 1  13.58502669686969  2.65690030913091 -0.38671045874587
 1  14.53546024632463  1.59697998719872  0.95651286518652
 1  16.19095075087509  1.58048666136614 -1.10574706540654
 1  14.93066865026503  2.12106601940194 -2.27634901460146
 1  15.22897430203020  4.37063244124412 -0.88500049814982
 1  16.06845961606161  3.63739038043804  0.03766366676668
 1  18.04960864226423  2.94864635583558 -0.97581666126613
 1  16.61763248364836  4.74565109400940 -3.38529088888889
 1  18.42711863536354  4.04148366166617 -3.39003360846085
 1  17.05692589278928  3.02631370137014 -3.33527156175618
 1  17.84622066926693  4.98725994349435  0.33664532873287
 1  19.05718324062406  5.31268542074207 -1.32170908530853
 1  17.55844739563956  5.98802830593059 -1.01495555685569
 1 -5.16215151655166 -8.03994342744274  0.12306876917692
 1 -6.42514694499450 -6.91274836143614  0.87691119861986
 1 -4.94519268786879 -6.69415099069907  1.51003546014602
 8 -8.01292888448845  6.81389789058906 -0.21004878887889
 1 -9.05910420752075  6.33618926382638 -1.74148983178318

