%nproc=4
%Mem=4GB
# td=(NStates=1) iop(3/107=0140000000,3/108=0140000000) iop(3/107=0140000000,3/108=0140000000) CAM-B3LYP/6-31G(d,p) 

TD

0 1
12 -5.46430793739374  1.18177305160516  0.12538114331433
 6 -4.92083247044704 -2.13865232853285 -0.48897576437644
 6 -3.27090587968797  1.17430771557156  2.78803417671767
 6 -6.20094889058906  4.44591785598560  0.76600680948095
 6 -7.87779354645465  1.15152600330033 -2.43460113361336
 7 -4.31424567786779 -0.31798999079908  1.06000733953395
 6 -4.19275280278028 -1.57626132773277  0.73799614921492
 6 -3.23092621712171 -2.38555185798580  1.56400076377638
 6 -2.83952712371237 -1.31202409330933  2.66617317341734
 6 -3.49784721212121 -0.08732135983598  2.15003958915892
 6 -3.46404944434443 -1.56043948534853  3.98622132153215
 6 -2.02786797999800 -2.76596400570057  0.70663596909691
 6 -1.06399804330433 -3.62150973157316  1.52000558855886
 6  0.23338843934393 -3.95090893159316  0.70839903460346
 8  0.47662772707271 -3.50125743934393 -0.41354758895890
 8  1.01297814351435 -4.83876349364937  1.32252685998600
 7 -4.79551036733673  2.64648402530253  1.53982421412141
 6 -3.90278236803680  2.40903832553255  2.47887849114911
 6 -3.70516001970197  3.66415491769177  3.15699625582558
 6 -4.58150870357036  4.59687121542154  2.66563583488349
 6 -5.24021012521252  3.92533062826283  1.54695078737874
 6 -2.71785714881488  3.93831120692069  4.31574576397640
 6 -4.73816034663466  5.99009643014301  3.03024252905291
 8 -4.04108415641564  6.59422731073107  3.86386028592859
 7 -6.82179597949795  2.59330922672267 -0.66942859915992
 6 -6.86699941474147  3.85960557775778 -0.36374806350635
 6 -7.91126631303130  4.60603732853285 -1.29455356485649
 6 -8.32872232553255  3.61828875877588 -2.15114405880588
 6 -7.66723561406141  2.37786379517952 -1.80923687018702
 6 -8.25265825672567  6.00475038443844 -1.14884439323932
 6 -9.39290365366537  3.77752815101510 -3.17231186398640
 6 -8.68624007770777  4.08277642384238 -4.51506791079108
 7 -6.19637805680568 -0.09954497219722 -1.13438853085309
 6 -7.11396092569257  0.01439537093709 -2.12839705040504
 6 -7.40954846204620 -1.26509821342134 -2.78109063166317
 6 -6.61188073687369 -2.10734030583058 -2.13050921662166
 6 -5.71329974537454 -1.38296186128613 -1.26316244664466
 6 -8.47118257605760 -1.56509663566357 -3.77238413461346
 6 -6.18966263336334 -3.53731931583158 -2.04900845594559
 8 -6.62354675017502 -4.56314401280128 -2.62186845194519
 6 -5.01471003310331 -3.59926797939794 -0.89338165796580
 6 -5.36542401980198 -4.63192863396340  0.11366503830383
 8 -5.80693646524652 -4.29537854595460  1.24439080248025
 8 -5.08151784998500 -5.80275147154715 -0.39945308990899
 6 -5.51462902710271 -6.94368622192219  0.61429325912591
 6  2.23915488868887 -5.27397851805181  0.51720567496750
 6  3.30188472347235 -4.10746090699070  0.83264116391639
 6  4.00207959815982 -3.24644751485149  0.08666230123012
 6  3.71379571847185 -3.13526846814681 -1.39361886638664
 6  5.05079150495050 -2.40608565616562  0.70655445424542
 6  6.50907577887789 -2.83090601580158  0.09612107950795
 6  7.57504282788279 -1.90108946444644  0.51973766426643
 6  8.89777059835984 -2.06691152475248 -0.08223600610061
 6  9.65543192489249 -3.46359700010001  0.10652719501950
 6  9.81761234033403 -0.81413165056506  0.40468298379838
 6  11.20958826122612 -0.97793740064006 -0.14798356455646
 6  12.15603329192919  0.29458408590859  0.21080792839284
 6  13.42561501730173  0.49174404430443 -0.57061182438244
 6  14.45168346734673 -0.60864026662666 -0.36041019191919
 6  14.13094903450345  1.88782495409541 -0.19916917171717
 6  15.46875106550655  2.22015004320432 -0.91475647064706
 6  15.90880346474647  3.58235298809881 -0.61827244044404
 6  17.21858710781078  3.98805664726473 -1.43342727792779
 6  17.03157574727473  3.90381527322732 -2.92660488468847
 6  17.70625003110311  5.30373563886389 -0.84153361226123
 1 -2.65402112491249  1.40888516391639  3.67698816721672
 1 -6.41415939473947  5.49552493289329  0.80857984968497
 1 -8.64736514371437  1.27661796469647 -3.28709418821882
 1 -3.92322338713871 -3.30593590899090  1.88952701350135
 1 -1.89174629852985 -1.03649131073107  2.74047532363236
 1 -3.05248502760276 -2.39509267046705  4.33293683768377
 1 -3.22953374607461 -0.76147605200520  4.75371740154015
 1 -4.50842335403540 -1.74642372327233  3.96158010851085
 1 -2.25864117781778 -3.35201471877188 -0.13967459125913
 1 -1.67401523392339 -1.81761087738774  0.37368549014901
 1 -0.56574200770077 -3.32888418401840  2.51147536623662
 1 -1.61773649524953 -4.43123025422542  1.88929072707271
 1 -1.89835994979498  3.85668519291929  4.03608951865186
 1 -2.79236022612261  4.85390259625963  4.89607586528653
 1 -2.94528752375237  3.19876087358736  4.94692969896990
 1 -5.48605166906691  6.72868706310631  2.39432475387539
 1 -9.98274740824082  2.88354901200120 -3.16244949664967
 1 -10.10179097699770  4.53776762086209 -2.79622991369137
 1 -9.28405820562056  4.03356177017702 -5.24441964426443
 1 -8.10993050245025  4.92045179057906 -4.49527948294829
 1 -7.99156900590059  3.24554391319132 -4.69571949674967
 1 -8.25954354395440 -0.89703024592459 -4.86004700300030
 1 -8.67273825682568 -2.63509691479148 -4.20966360336034
 1 -9.41792187168717 -1.03692051545155 -3.35617252395240
 1 -4.07252460986099 -3.85412023862386 -1.37804109100910
 1  2.53462459545955 -6.18100604360436  1.12501845874587
 1  2.10784152755276 -5.27845482158216 -0.65329877947795
 1  3.63005512781278 -4.12501178297830  1.94313932153215
 1  2.62976796349635 -3.49930555165516 -1.46795933693369
 1  3.98452306560656 -2.31813537283728 -1.89379184968497
 1  4.28367054105410 -3.84121785098510 -2.11741066696670
 1  4.68261830273027 -1.36614303830383  0.47989987348735
 1  5.04233276057606 -2.60475210761076  1.78169304960496
 1  6.55288281498150 -4.02026521862186  0.11739962396240
 1  6.48259842024202 -2.62772038103810 -0.95995659115912
 1  6.98472740404040 -1.07358068316832  0.45436268176818
 1  7.68569067196720 -1.93894047714772  1.67526191149115
 1  8.77820192949295 -2.00645892109211 -1.23968730683068
 1  9.07060157885789 -4.10427919931993 -0.32128592099210
 1  10.53206254705471 -3.62701690379038 -0.48370848434844
 1  9.86673573497350 -3.86361745324532  1.16040648334833
 1  9.33176232683268  0.04437016321632 -0.05130976717672
 1  9.81017111461146 -0.79753628752875  1.34689422942294
 1  11.73370851215122 -1.86221625352535  0.36299192599260
 1  11.08807489418942 -1.15964886978698 -1.21751308490849
 1  11.56455748924893  1.31859628882888 -0.07493704890489
 1  12.17424224752475  0.45472666406641  1.28287656785679
 1  13.06926372707271  0.62601703400340 -1.60772301100110
 1  14.55164450275027 -0.56276448914892  0.76814249424943
 1  14.01563713471347 -1.59100811711171 -0.71769809130913
 1  15.34998598699870 -0.33124632283228 -0.76806369886989
 1  13.38267646184618  2.62700731983198 -0.44356614431443
 1  14.35845254555456  1.88484877407741  0.91794900880088
 1  16.08298995479548  1.31962057475748 -0.46721321202120
 1  15.32150773417342  2.15436934973497 -2.00568194789479
 1  15.28650005460546  4.22715809380938 -0.99238123622362
 1  16.13579634973497  3.52456909830983  0.47657755815582
 1  18.00254393579358  3.16965845704570 -1.14727380698070
 1  16.25603632403240  4.88643517241724 -3.09523188298830
 1  17.93961988548855  4.29333884718472 -3.38906351145114
 1  16.82950315051505  2.99454052405241 -3.22383041764176
 1  18.05132117931793  5.25153637113711  0.16735840004000
 1  18.50491801410141  5.85550970317032 -1.23415032943294
 1  16.89613116401640  5.98856835993599 -1.03456751805181
 1 -5.21287658905891 -7.82411184428443  0.04724118641864
 1 -6.51196562686269 -6.95900298689869  0.62918642614261
 1 -5.09081725032503 -6.70076165176518  1.72224668126813
 8 -7.86670426202620  6.89493599439944 -0.37899568356836
 1 -9.26694499159916  6.18863450835083 -1.75187086988699

