%nproc=4
%Mem=4GB
# td=(NStates=1) iop(3/107=0140000000,3/108=0140000000) iop(3/107=0140000000,3/108=0140000000) CAM-B3LYP/6-31G(d,p) 

TD

0 1
12 -5.61406291289129  1.27612248654865  0.21778038323832
 6 -5.07532791999200 -2.24813327662766 -0.31246811361136
 6 -3.52321111021102  1.10913119791979  2.70427580088009
 6 -6.10404920062006  4.51916518071807  0.64533474227423
 6 -7.98202396949695  1.22442329302930 -2.28534620812081
 7 -4.43379763306331 -0.27406559835984  1.01439277807781
 6 -4.37719124662466 -1.69180288188819  0.69488183778378
 6 -3.24131725622562 -2.33389669246925  1.52349671337134
 6 -2.98845201620162 -1.36325921682168  2.57903445954595
 6 -3.65840326772677 -0.09547217491749  2.11214579977998
 6 -3.43220626002600 -1.76935037643764  3.99781248064806
 6 -1.95380057325733 -2.63973138243824  0.64084939043904
 6 -0.90992263576358 -3.57072465306531  1.36573016101610
 6  0.19433453395340 -3.89525336603660  0.38024621932193
 8  0.52248231253125 -3.33704101770177 -0.71393762796280
 8  1.01179802550255 -4.70466008330833  1.14775938323832
 7 -4.98573939023902  2.58555793269327  1.60133036473647
 6 -4.13180527032703  2.39473689538954  2.44637524082408
 6 -3.73287279097910  3.60261876407641  3.15900645684568
 6 -4.50799135183518  4.61947347564757  2.57235650695069
 6 -5.30718682288229  3.95697379257926  1.47086317861786
 6 -2.81084644774477  3.80515789158916  4.28155234463446
 6 -4.55894242484248  5.98825624612461  2.96477598239824
 8 -3.94519456745675  6.51187907590759  3.93556745664566
 7 -6.84524832473247  2.54478437423742 -0.65444710101010
 6 -6.87286000080008  3.87282689988999 -0.36734842354235
 6 -7.67550273667367  4.64913163796380 -1.24081819131913
 6 -8.31053050635063  3.73868079797980 -2.05731467586759
 6 -7.70194908540854  2.45101110991099 -1.70586653315332
 6 -8.12830582148215  6.02188209760976 -1.20911041984198
 6 -9.43493785708571  3.83388378657866 -3.20555518831883
 6 -8.85676713041304  4.11318946514651 -4.60171657565757
 7 -6.30986940594059 -0.17269228692869 -1.06806189818982
 6 -7.33377290689069  0.00678460986099 -2.03202741344134
 6 -7.56843435063506 -1.24669637323732 -2.73148567116712
 6 -6.73079262806281 -2.19292886468647 -2.10570673637364
 6 -5.99679809520952 -1.44392795789579 -1.05122125252525
 6 -8.52792825062506 -1.57952807880788 -3.86023291949195
 6 -6.16155982308231 -3.53845942984298 -2.03186674177418
 8 -6.55247964346435 -4.49639733813381 -2.62622888798880
 6 -5.00279884198420 -3.62194024662466 -0.93192551235124
 6 -5.42349982738274 -4.70390583168317  0.11312498429843
 8 -5.84076984858486 -4.54987399549955  1.25888225162516
 8 -5.09366906510651 -5.89608080448045 -0.39542268686869
 6 -5.34885244944495 -7.06059791309131  0.46012784258426
 6  2.31424239743974 -5.08059918011801  0.50303425782578
 6  3.38124265926593 -4.21492165306531  0.98624652445245
 6  4.08679807000700 -3.27359022912291  0.33037667266727
 6  3.76428076697670 -3.10433537483748 -1.13948345284528
 6  5.18922534833483 -2.33211825942594  0.82048584738474
 6  6.51622649394939 -2.71195412061206  0.15047651505150
 6  7.59777510111011 -1.82699205470547  0.81172686318632
 6  8.94380520182018 -1.88549338293829  0.09700191769177
 6  9.61896827852785 -3.36555719611961  0.39411595389539
 6  9.94652523162316 -0.69842007940794  0.45812832833283
 6  11.29877718011801 -0.69157876477648 -0.31827059325933
 6  12.17320500910091  0.36640126762676  0.17427427502750
 6  13.48131058685868  0.45170003990399 -0.52202696589659
 6  14.45153345234523 -0.70896029862986 -0.18941309220922
 6  14.28865480508051  1.72149832143214 -0.42580183498350
 6  15.53202739313931  2.13530155835584 -1.12763775877588
 6  16.11086367076708  3.43789854265427 -0.70583119631963
 6  17.39121437053705  3.90018786038604 -1.44549848504851
 6  17.15656824652465  4.01421631333133 -2.92293451765177
 6  17.92831223732373  5.26404166946695 -0.89169862876288
 1 -2.78031375417542  1.04217849324932  3.77523799219922
 1 -6.22895087388739  5.51895727612761  0.69809880158016
 1 -8.68978938613861  1.05596589948995 -3.19753523232323
 1 -3.51145221002100 -3.39901521692169  1.90407846864686
 1 -1.96722384628463 -1.23312097369737  2.74349562566257
 1 -2.98142792189219 -2.77318047924792  4.23911745574557
 1 -3.29725051775177 -1.10495039943994  4.82055408520852
 1 -4.50413292499250 -1.93423250415041  3.96793074357436
 1 -2.15002031573157 -3.08960847814781 -0.32595321912191
 1 -1.56517434983498 -1.70306942324232  0.48570669226923
 1 -0.59930536403640 -2.89874116971697  2.08300251895190
 1 -1.38904362596260 -4.53661079227923  1.62099389738974
 1 -1.78267838163816  3.34244376877688  4.02464837453745
 1 -2.78801979207921  4.81399860586059  4.53086934463446
 1 -3.32510550555056  2.97440843834383  4.92302730873087
 1 -5.17433049694970  6.78237243164316  2.27491281268127
 1 -10.15495462896290  2.95801645874587 -3.25752900460046
 1 -10.09639043694369  4.59061290539054 -2.86993728442844
 1 -9.69266906670667  4.15233364736474 -5.32110731303130
 1 -8.31255076447645  4.96005575097510 -4.44153410841084
 1 -8.05849569856986  3.31849120792079 -5.03905383018302
 1 -8.21935952555256 -1.08790933383338 -4.77980897919792
 1 -8.75074605760576 -2.69660306540654 -4.14624726172617
 1 -9.36380646014601 -1.30770759415942 -3.44603150985098
 1 -3.97840519791979 -3.97576240284028 -1.15054834173417
 1  2.66001713471347 -6.16124406740674  1.00406636353635
 1  2.25960670407041 -5.11472844894489 -0.60780423002300
 1  3.69121124342434 -4.42889217101710  2.23301830943094
 1  2.83261824852485 -3.60962658375838 -1.12257479847985
 1  3.51487610091009 -1.98413197249725 -1.42016448694869
 1  4.57264943894389 -3.47990171937194 -1.68025695159516
 1  5.07861790269027 -1.39690611461146  0.54800668416842
 1  5.34323285058506 -2.30274190659066  1.78395327562756
 1  6.48338586528653 -3.97193038513851  0.13582146614661
 1  6.33555371577158 -2.63692130113011 -0.96180677617762
 1  7.24650358165817 -0.81799512461246  0.51221846734673
 1  7.72344444734473 -2.04481106420642  1.84031841714171
 1  8.91410551985198 -1.75902417761776 -0.83321665976598
 1  8.89742426112611 -4.17146591799180 -0.14912870527053
 1  10.52657199799980 -3.61510571267127  0.05565545204520
 1  9.63512257365737 -3.60636172767277  1.54222466516652
 1  9.51598074867487  0.32249797599760  0.32842820662066
 1  10.06838693619362 -0.75986252015202  1.56510605060506
 1  11.83744888618862 -1.52852288418842  0.10745637243724
 1  11.18523461016102 -0.94047695259526 -1.25467680128013
 1  11.62329336283628  1.27053148234823 -0.19389894509451
 1  12.48593341664166  0.36572776417642  1.24656293649365
 1  13.13486028672867  0.34883931623162 -1.60718295699570
 1  14.69179851815181 -0.88635684838484  0.89793547354736
 1  14.03485905690569 -1.75971498779878 -0.47434375587559
 1  15.40422141054106 -0.70242344054405 -0.73973086558656
 1  13.48696689088909  2.48153277237724 -0.62780456815682
 1  14.18816551685169  1.88005829502950  0.68755596949695
 1  16.12473412921292  1.21340995369537 -0.85862235293529
 1  15.54063964736474  2.00463437623762 -2.35232661236124
 1  15.34985639023902  4.15649102710271 -0.89172117021702
 1  16.35963873397340  3.44584122552255  0.43908380878088
 1  18.19524320572057  3.17950944214421 -1.29425850545054
 1  16.35935665606560  4.73309983888389 -3.27189954975498
 1  18.03494941844184  4.42551206450645 -3.33444804990499
 1  16.96009620982098  3.07682875287529 -3.62666070067007
 1  18.11231727892789  5.19400061756176  0.06973863806381
 1  18.77693521582158  5.47981213341334 -1.37725463986399
 1  17.16228777967797  6.03817332043204 -1.16964102540254
 1 -5.13678898029803 -7.82063149624963 -0.24085762346235
 1 -6.45405983628363 -7.19065615221522  0.55295880338034
 1 -5.00851902050205 -6.91863343894389  1.39710416701670
 8 -7.81307889948995  6.92528902970297 -0.42955073907391
 1 -8.96315461256126  6.25276092099210 -2.01903758655866

