%nproc=4
%Mem=4GB
# td=(NStates=1) iop(3/107=0140000000,3/108=0140000000) iop(3/107=0140000000,3/108=0140000000) CAM-B3LYP/6-31G(d,p) 

TD

0 1
12 -5.55678718531853  1.22144701900190  0.11531013621362
 6 -5.02609299649965 -2.09945840914091 -0.34558142494249
 6 -3.31629041814181  1.25261554635464  2.71660703400340
 6 -6.22057085278528  4.53785704990499  0.60460066886689
 6 -8.10540630773077  1.16137698839884 -2.39160683418342
 7 -4.38201245454546 -0.26904509630963  1.08287962676268
 6 -4.40277380488049 -1.54890859245925  0.78891124072407
 6 -3.27863098759876 -2.31763506630663  1.55305966966697
 6 -2.87211038203820 -1.27075996689669  2.67785434153415
 6 -3.57119454685469  0.00190756305631  2.15389997519752
 6 -3.40266330573057 -1.69009245064506  4.01225392479248
 6 -1.98759395259526 -2.69808721802180  0.71032633813381
 6 -1.00974261776178 -3.53888146874687  1.54218780678068
 6  0.14361946244624 -3.95569941064106  0.60052824752475
 8  0.30756082038204 -3.70346766036604 -0.55754198839884
 8  1.05777262296230 -4.70664028132813  1.31486609390939
 7 -4.85586640294029  2.63961333823382  1.44289452115212
 6 -4.03064515431543  2.47240466216622  2.43986458975898
 6 -3.76223572727273  3.71850035223522  3.16970752695270
 6 -4.69204975767577  4.57822935123512  2.58645791709171
 6 -5.31734783898390  3.90187828302830  1.48345443774377
 6 -2.85801116421642  3.83447082288229  4.43631782118212
 6 -4.86852338293829  5.99610703120312  3.05515502030203
 8 -4.30553060106011  6.58103599159916  3.95620952085209
 7 -6.98016181608161  2.61607150295030 -0.65723738003800
 6 -7.02926564136414  3.91921153835384 -0.38951063976398
 6 -7.88944413081308  4.63025975077508 -1.22702681218122
 6 -8.38401785508551  3.64108103800380 -2.12113105750575
 6 -7.83119200970097  2.41665767456746 -1.80674662116212
 6 -8.23412640354035  5.98795870527053 -1.21833134193419
 6 -9.36828119141914  3.78779917811781 -3.28188282108211
 6 -8.76495794949495  3.99921806800680 -4.64111051505150
 7 -6.37225564456446 -0.13061807950795 -1.08631372337234
 6 -7.35838536813681  0.00672460386039 -2.13464767546755
 6 -7.49994750195020 -1.32976468006801 -2.82916543914391
 6 -6.71713126192619 -2.17111668346835 -2.02326849254926
 6 -5.95959437483748 -1.42488605370537 -1.10052618301830
 6 -8.36886234403440 -1.61317144314431 -3.82703960016002
 6 -6.24976864396440 -3.55792137603760 -1.94328788388839
 8 -6.44523891939194 -4.51313901230123 -2.63331959705971
 6 -5.03023158525853 -3.49328738133813 -0.83829614941494
 6 -5.39210668806881 -4.65391083218322  0.21706537833783
 8 -5.79606537813781 -4.41171017911791  1.34583094649465
 8 -5.06799649784979 -5.81285248164816 -0.27506065066507
 6 -5.38802636683668 -6.93417527082708  0.59239106890689
 6  2.30942191539154 -5.04538565876588  0.66593054745475
 6  3.43233776877688 -4.03706386728673  1.07587548734874
 6  4.05256464666467 -3.23747661776178  0.08248188318832
 6  3.67814215311531 -3.02910785208521 -1.32355185968597
 6  5.24574099989999 -2.44742979057906  0.55892969176918
 6  6.59069394069407 -2.63171609680968 -0.17707624022402
 6  7.72579790339034 -1.78889824532453  0.35004069456946
 6  9.09044986628663 -2.06098093169317 -0.25015279777978
 6  9.62624900660066 -3.52680332073207  0.12203874617462
 6  10.06534711381138 -0.94840507790779  0.25322783828383
 6  11.35798310071007 -0.95825543244324 -0.42761152735274
 6  12.24543223182318  0.18673330083008  0.03396024362436
 6  13.59500195599560  0.30224509440944 -0.64997976117612
 6  14.55938423742374 -0.89717912051205 -0.27647179807981
 6  14.30572651225122  1.65025119671967 -0.20191944674467
 6  15.63021721212121  2.03178120632063 -0.92709770477048
 6  16.11201378577858  3.49886463926393 -0.48785939913991
 6  17.25934118321832  4.12016985858586 -1.22558649384939
 6  17.14242683238324  4.26595148684868 -2.75702792699270
 6  17.89383878997900  5.32970823612361 -0.71885134403440
 1 -2.63971969476948  1.19158343374337  3.70885135353535
 1 -6.54781276007601  5.61078645904590  0.99510850255025
 1 -8.70136054325432  1.22670297319732 -3.49061454025403
 1 -3.84856592139214 -3.38568388378838  1.78002606340634
 1 -1.79725684958496 -1.13676133773377  2.70814209030903
 1 -2.83013279237924 -2.67007016821682  4.30664420842084
 1 -3.25296608930893 -0.92591249564957  4.83529555935594
 1 -4.44400691239124 -2.02834191509151  4.09020297079708
 1 -2.28044335803580 -3.10788030533053 -0.16111673547355
 1 -1.50717855025503 -1.89153827012701  0.45677379897990
 1 -0.42110754425443 -2.81665296089609  2.35028924762476
 1 -1.32939766136614 -4.37381451265126  1.99048084608461
 1 -1.74868498229823  3.67804732913291  4.13319922962296
 1 -2.89826081618162  4.87442464846485  4.85412166986699
 1 -3.17017001200120  3.12076307380738  5.15387039303930
 1 -5.59731279517952  6.53957815221522  2.33709903130313
 1 -10.09913904740474  3.07312796989699 -3.16606985868587
 1 -9.88848964686469  4.74899874397440 -3.00952124282428
 1 -9.52581238103810  4.15017343134314 -5.29854505680568
 1 -7.91154066346635  4.86379612501250 -4.73653360836084
 1 -7.95979582858286  3.14222358115812 -4.94849477427743
 1 -8.19084667426743 -0.99040958385839 -4.64925592389239
 1 -8.22880386338634 -2.56008941404140 -4.39553219021902
 1 -9.45446552605261 -1.49654647804781 -3.59966687338734
 1 -4.27848520592059 -3.99024385098510 -1.43069635653565
 1  2.67934906790679 -6.10124806780678  0.95747170407041
 1  2.16420716411641 -5.16553352945295 -0.42202565216522
 1  3.92296441874187 -4.22924220602060  2.03342835043504
 1  2.58417340404040 -3.36791241234123 -1.54004654565457
 1  3.67780239353935 -1.98781234053405 -1.78508097859786
 1  4.20371254525453 -3.75309903910391 -1.94319324522452
 1  5.09776981788179 -1.23301972597260  0.46872875637564
 1  5.57516604390439 -2.74136576897690  1.68963384368437
 1  6.99269679637964 -3.52726591869187 -0.08052016801680
 1  6.55938609900990 -2.55255286428643 -1.39823041854185
 1  7.45378430973097 -0.71569489458946  0.17006425192519
 1  7.82598470137014 -1.85857244034403  1.41364574987499
 1  9.27356146544654 -1.85932420762076 -1.39053239133913
 1  9.26768128682868 -4.47880665206521 -0.47408120052005
 1  10.70059940074007 -3.65758996109611 -0.23935404890489
 1  9.49656871827183 -3.58419951145114  1.26399684238424
 1  9.61419056965697  0.07271299749975  0.13998936273627
 1  10.27163726122612 -1.28433496739674  1.14462400240024
 1  11.97103224452445 -1.83036306820682 -0.39473384658466
 1  11.17012309900990 -0.84571747664767 -1.56772810641064
 1  11.63957499099910  1.25275970517052  0.08964940974097
 1  12.42473729702970 -0.16278508710871  1.06845512571257
 1  13.56747354805480  0.52492692499250 -1.77500973967397
 1  14.66397573587359 -0.71794000670067  0.83581926192619
 1  13.93552912391239 -1.81694071037104 -0.46177249874987
 1  15.50845183358336 -0.65888908710871 -0.71967886038604
 1  13.57435562976298  2.63331795089509 -0.38489027672767
 1  14.48122482278228  1.73547383658366  0.95789300320032
 1  16.44027568336834  1.29305791849185 -0.66393288398840
 1  15.13657924132413  1.88505241804180 -1.94012539223922
 1  15.13375478007801  4.14843022102210 -0.56781877997800
 1  16.53142591269127  3.46454309570957  0.58421832223222
 1  18.17839152055205  3.48652014321432 -1.07630671027103
 1  16.14065478587858  4.88482501140114 -3.02478483828383
 1  17.96435235873587  4.55688520182018 -3.15999060416042
 1  17.00781098129813  3.22488355835584 -3.16322435703570
 1  18.05856190339034  5.22395361286129  0.37090875507551
 1  18.83085060736074  5.36463061526153 -1.31557847224722
 1  17.43467501840184  6.19811931503150 -0.93643770507051
 1 -5.35000030143014 -7.81812124522452 -0.03634717241724
 1 -6.50507493779378 -6.74803188978898  0.78177168466847
 1 -4.88327649624963 -6.99280085568557  1.64802925952595
 8 -7.71759935153515  6.81727822862286 -0.37645542954295
 1 -8.91348964606461  6.44716036093609 -1.74926060886089

