%nproc=4
%Mem=2GB
# td=(NStates=1) iop(3/107=0140000000,3/108=0140000000) iop(3/107=0140000000,3/108=0140000000) CAM-B3LYP/6-31G(d,p) 

TD

0 1
12 -6.68417098919892  0.43349249334933  0.20807842734273
 6 -4.60504761126113 -2.08288671047105  0.49905018201820
 6 -4.08372018741874  2.78863049614962  1.03696657825783
 6 -8.83284598929893  3.09043306740674 -0.18380788248825
 6 -9.14918301590159 -1.61505453505351 -0.66810686938694
 7 -4.57488256015601  0.24163356105611  0.65474450655066
 6 -3.91564883048305 -0.85563527032703  0.74763531893189
 6 -2.44401782038204 -0.76398815801580  1.03724578687869
 6 -2.27789775557556  0.81952210101010  1.26340850335034
 6 -3.74033029592959  1.34938502370237  0.96099087378738
 6 -1.66239252495250  1.01930372627263  2.78093265606561
 6 -1.67419616801680 -1.23824638803880 -0.21592026572657
 6 -0.18849696799680 -1.15411711831183  0.34782385588559
 6  0.68428950815082 -1.56299353625362 -0.83830200400040
 8  0.36383645174518 -1.52186479897990 -2.11048203840384
 8  1.87826811341134 -2.06998729732973 -0.31455637813781
 7 -6.43619536173617  2.58970934093409  0.49760350825083
 6 -5.20345090599060  3.32841148434843  0.66279257545755
 6 -5.50898511371137  4.74606429122912  0.62084695329533
 6 -6.95058577197720  4.93524961546155  0.43725030833083
 6 -7.54411611551155  3.46690549894990  0.23281811321132
 6 -4.50278519881988  5.81720915141514  0.90276794479448
 6 -7.73321488278828  6.22198911901190  0.21585110881088
 8 -7.13773768996900  7.25153677027703  0.27182503930393
 7 -8.73597715121512  0.78671953115312 -0.34582723182318
 6 -9.38917258965897  1.87875261056106 -0.49124017631763
 6 -10.67068369866987  1.74083395449545 -0.88552433363336
 6 -10.94301865936594  0.27415832023202 -0.90776163166317
 6 -9.51623328662866 -0.31954011721172 -0.66036811351135
 6 -11.70459723502350  2.61988818191819 -1.40937558835884
 6 -12.12804592509251 -0.48574213651365 -1.19600773447345
 6 -12.19332619471947 -0.55149731493149 -2.67207000170017
 7 -7.03229971287129 -1.47650021132113 -0.01396404090409
 6 -8.01251391299130 -2.29133913061306 -0.50721391939194
 6 -7.60137772287229 -3.57998532093209 -0.42396340644064
 6 -6.25559118031803 -3.63511267216722 -0.16124438503850
 6 -5.95276156485649 -2.27621643614361  0.13231941624162
 6 -8.39879840334033 -4.83915129292929 -0.81059387528753
 6 -5.02936914141414 -4.35044084218422  0.16510453615362
 8 -4.98923067176718 -5.63023356165617  0.03336384298430
 6 -3.92257598299830 -3.44925548474847  0.62025667286729
 6 -3.42338584948495 -3.87475365086509  1.96884659765977
 8 -4.08667390749075 -4.25303203800380  3.01108977877788
 8 -2.01883355825583 -3.51895820112011  2.05240517971797
 6 -1.38359688178818 -4.00218530863086  3.18874329952995
 6  2.88149004180418 -2.29893507040704 -1.36534777887789
 6  4.05133890129013 -1.16902390349035 -1.02220775307531
 6  4.99697045244524 -1.06389326072607 -2.07454365596560
 6  4.86937092089209 -1.65914904960496 -3.33783076527653
 6  6.01105493009301 -0.01189884278428 -1.60883744224422
 6  7.25429412341234 -0.68838462056206 -1.15147188448845
 6  8.21909446974697  0.33841947654765 -0.63517199769977
 6  9.43690678007801 -0.19434635493549 -0.10353865956596
 6  9.13419093539354 -0.76005482018202  1.26460082888289
 6  10.71916424642464  0.75400025422542  0.06031086948695
 6  12.08188345884589  0.12900420762076  0.47916622782278
 6  13.19610115271527  1.05685295999600  0.38839173757376
 6  14.79461579677968  0.35796907500750  0.68238290039004
 6  14.99952494059406 -0.11595387588759  2.26884680868087
 6  15.76011563996400  1.43897879987999  0.13344654995500
 6  17.30316979507951  0.83816904130413  0.26582970907091
 6  18.29140868826883  1.88970616181618 -0.38899904670467
 6  19.70928312941294  1.30430892569257 -0.51723180688069
 6  19.81967176847685  0.41745717601760 -1.77302309350935
 6  20.76466363526353  2.43863528152815 -0.46405150105010
 1 -2.96587722602260  3.30056130713071  1.00061946364637
 1 -9.41283526602660  4.02843192829283 -0.14384801870187
 1 -9.96482897449745 -2.24613501280128 -0.88567139303930
 1 -2.17401991879188 -1.28105572337234  1.92043209150915
 1 -1.44987432603260  1.32422289848985  0.58887534093409
 1 -0.86676806050605  0.70915923032303  2.83677438853885
 1 -1.66307448134813  1.98312688908891  3.35120123792379
 1 -2.42111444394440  0.46044392969297  3.56774264336434
 1 -2.03634265456546 -2.73624489748975 -0.25563335013501
 1 -1.87157232623262 -0.57897937083708 -1.15990578137814
 1  0.00564856315632  0.25932449914992  0.63228909410941
 1 -0.00329404920492 -2.11298763256326  0.95342557465747
 1 -3.64545907630763  5.91516934483448  0.28720367806781
 1 -5.27996827742774  6.68507118301830  0.82326923302330
 1 -3.70845187338734  5.25386434743474  1.71001877417742
 1 -8.63444645874588  5.84640975017502 -0.06237261306131
 1 -12.28313786738674 -1.22057292479248 -0.75150957815782
 1 -13.25757197219722  0.09740614041404 -0.96285392179218
 1 -12.95917374047405 -1.16350846624663 -2.93052016911691
 1 -12.54662162596260  0.48501592309231 -2.76818898839884
 1 -11.13476030043004 -1.19458277527753 -3.23751035843584
 1 -9.25797498079808 -4.38850540614061 -1.49814204220422
 1 -7.16700191479148 -5.75914592719272 -1.42378203010301
 1 -9.00845812581258 -5.60894285548555 -0.12365775627563
 1 -3.09607918931893 -3.80426415131513  0.09712140534053
 1  3.46254787018702 -3.35800307410741 -0.98412412951295
 1  2.52445673447345 -2.11427734273427 -2.48909914521452
 1  3.78090541824182 -0.91082383078308  0.01828543014301
 1  4.00326338333833 -1.62468594109411 -3.89196931193119
 1  5.73048662706271 -1.53687236263626 -4.11867309120912
 1  5.02617644504450 -2.73768638293829 -3.46961114491449
 1  6.56737715961596  0.66144148154816 -2.34569718691869
 1  5.40396550595059  0.63192874067407 -0.95669993339334
 1  6.88832001090109 -1.44255245234523 -0.55766404480448
 1  7.49095449384938 -1.25162395269527 -1.90502997889789
 1  8.73361549294929  0.80235082988299 -1.46751953725372
 1  7.63791228932893  1.15343053125312  0.09955566396640
 1  9.92195464256426 -0.99713715741574 -0.55435259285929
 1  8.33270551485149 -1.11906072177218  1.32503086388639
 1  10.20800687008701 -1.15378926012601  1.91737362876288
 1  8.57987119871987  0.10650942854285  2.09564086918692
 1  10.65305894369437  1.04923768366837 -0.93441061266127
 1  10.63540328692869  1.43702257785779  0.74061794209421
 1  11.81930947314731 -0.11768420792079  1.66593027632763
 1  12.35851800580058 -0.59989821042104 -0.08071106860686
 1  13.46210108010801  1.63932347734773 -0.81193009760976
 1  12.79825186998700  1.91388563986399  1.17963375277528
 1  15.15145657145715 -0.49886740274028 -0.16922511371137
 1  15.00820071997200  0.65166556205621  3.16784955795580
 1  14.17569484298430 -0.82799047094709  2.42077957605761
 1  15.83081011411141 -0.56843042614261  2.38238471617162
 1  15.54452558745874  1.67303729712971 -0.91478145284528
 1  15.59601363396340  2.32238177367737  0.47511583478348
 1  17.54297561266127  0.43183635423542  1.31622180888089
 1  17.28470599479948 -0.28926075687569 -0.67120849824983
 1  17.84001900900090  2.13934048184818 -1.25755874417442
 1  18.74916491259126  2.65611951885189  0.40527719821982
 1  19.52968552975298  0.77246009220922  0.41847519831983
 1  19.52682100010001  0.87116216581658 -2.71673379857986
 1  20.66091038103810  0.06972517071707 -1.70042417581758
 1  19.02573530053006 -0.54666238463846 -1.10921899659966
 1  20.81491827042704  2.82015159425943  0.62163291689169
 1  21.75791353165317  1.83708029072907 -0.52479519451945
 1  20.58287494039404  3.23573106030603 -1.06507130343034
 1 -0.15050067516752 -3.86267901730173  3.00886923492349
 1 -1.42151183218322 -5.35499277297730  3.27282791939194
 1 -2.14815882918292 -3.46677515461546  4.21972612581258
 8 -11.60804917921792  3.86186098529853 -1.18030984468447
 1 -12.74232474397440  2.25515675577558 -1.92287289228923

