%nproc=4
%Mem=4GB
# td=(NStates=1) iop(3/107=0140000000,3/108=0140000000) iop(3/107=0140000000,3/108=0140000000) CAM-B3LYP/6-31G(d,p) 

TD

0 1
12 -5.55224673127313  1.29849472377238  0.18420702590259
 6 -4.94002438963896 -2.15000346364636 -0.38688555535554
 6 -3.37386617571757  1.28510879567957  2.76886225952595
 6 -6.14965376107611  4.53934719891989  0.61714192299230
 6 -8.04896066316632  1.17342819351935 -2.38385605910591
 7 -4.33600785408541 -0.24325251705171  1.01004234303430
 6 -4.22652618011801 -1.68930263186319  0.65173752335234
 6 -3.09040216471647 -2.44724802760276  1.48929329302930
 6 -2.84111728272827 -1.32258514941494  2.57494405050505
 6 -3.52126955435544 -0.06126875457546  2.12161674687469
 6 -3.40834387378738 -1.82885632703270  3.94762746214621
 6 -1.94737993119312 -2.71827923722372  0.63153845934593
 6 -0.96822846634664 -3.53155073567357  1.42426601460146
 6  0.22102720322032 -3.86507034773477  0.60752894759476
 8  0.49158922322232 -3.40985829942994 -0.45815204940494
 8  0.98500534623462 -4.75978559585959  1.22652726002600
 7 -4.81463227952795  2.64356373327333  1.46254648634863
 6 -3.93291538133813  2.45184260596060  2.43139374267427
 6 -3.73641314501450  3.65987448964896  3.19851040724072
 6 -4.46654720742074  4.65527705600560  2.58779805110511
 6 -5.24950105430543  3.94320241544154  1.48399449174917
 6 -2.71636699979998  3.75239261506151  4.31172536193619
 6 -4.69831636223622  6.01428884938494  2.98969847464747
 8 -3.99728977697770  6.49522741074107  3.78702260216022
 7 -6.92089588948895  2.63595349114911 -0.75765742204220
 6 -6.95579829462946  3.83996361356136 -0.36265795449545
 6 -7.96192137853785  4.62144886968697 -1.24669877937794
 6 -8.36649610291029  3.63515044494449 -2.15611455585559
 6 -7.71414030453045  2.39808581738174 -1.79503545004500
 6 -8.27404039493949  6.04729463886389 -1.11402091089109
 6 -9.52718708200820  3.86178657685769 -3.17983261606161
 6 -8.90856230993099  4.13212135833583 -4.55650205420542
 7 -6.23498191719172 -0.08969398709871 -1.20751584358436
 6 -7.35361489108911 -0.00368643724372 -2.04519873057306
 6 -7.58618612581258 -1.39034073767377 -2.59164168676868
 6 -6.72298184698470 -2.23120269206921 -2.01062722842284
 6 -5.88299671507151 -1.31792535763576 -1.19939607000700
 6 -8.56357181498150 -1.68131825782578 -3.74709160536054
 6 -6.21627529462946 -3.54442002590259 -2.01018457355736
 8 -6.63293768926893 -4.54316201460146 -2.62039830493049
 6 -5.12471103320332 -3.61891994459446 -0.94829714951495
 6 -5.24051152855285 -4.63634907600760  0.14274794659466
 8 -5.51935770737074 -4.54972398049805  1.29457582098210
 8 -4.87166686488649 -5.81359255565556 -0.31422456705671
 6 -5.14822238643864 -6.89629148244824  0.62133396319632
 6  2.30287126032603 -5.12294341454145  0.66124007840784
 6  3.32314684968497 -4.08765892679268  0.99684758455846
 6  3.91572096229623 -3.25052792289229  0.14741837683768
 6  3.53333767266727 -3.12508745004500 -1.28804830933093
 6  5.03197962376238 -2.29211425902590  0.64660845964596
 6  6.37878274957496 -2.70621354655466  0.03121458885889
 6  7.47728305190519 -1.77673702920292  0.48917460796080
 6  8.90667148844885 -1.97729256285629 -0.14680246274627
 6  9.47639402110211 -3.41759239963996  0.09895643794379
 6  9.90624120322032 -0.90181041844184  0.37535005050505
 6  11.23608091049105 -0.79058866576658 -0.39065783198320
 6  12.20602829142914  0.29608423592359  0.16812365996600
 6  13.52675513131313  0.43514838473847 -0.60229499269927
 6  14.42285058405841 -0.75175457805781 -0.36283043394339
 6  14.11360730033003  1.74788095969597 -0.13071232603260
 6  15.49794398479848  2.15053308150815 -0.85809080408041
 6  16.00399298369837  3.47377213001300 -0.59215982918292
 6  17.35268051715171  3.88254609620962 -1.27552148734873
 6  17.13034562426243  4.04122901460146 -2.82140436463646
 6  17.85395480158016  5.16647191249125 -0.65857531643164
 1 -2.66629235203520  1.27083135853585  3.54681514991499
 1 -6.21898987778778  5.55361074147415  0.73689268096810
 1 -8.89109951715172  1.16290659355936 -3.21161664046405
 1 -3.31908297309731 -3.28517383278328  2.00827888868887
 1 -1.67442456635664 -1.21609927152715  2.56837811391139
 1 -2.92817259635964 -2.62393555475548  4.42164570857086
 1 -3.38184897759776 -0.98385829022902  4.83783581338134
 1 -4.45135764746475 -2.18378745964596  3.76200015051505
 1 -2.23463877757776 -3.25045456275628 -0.35140576437644
 1 -1.37750558295830 -1.83235235153515  0.24561268286829
 1 -0.53291872537254 -3.05130642624262  2.30761498019802
 1 -1.27297201880188 -4.44420155135514  1.87744954295430
 1 -1.67228734253425  2.79487901230123  4.30086599629963
 1 -2.18668965906591  4.80724793079308  4.43783004070407
 1 -3.51872486748675  3.47737873537354  5.33241824782478
 1 -5.41824488838884  6.77097129152915  2.35420074147415
 1 -10.15332446594659  2.74752540964096 -3.14026727842784
 1 -10.12786358425843  4.70702454655465 -2.90317060776078
 1 -9.59409920972097  4.58688710271027 -5.35751095339534
 1 -8.12409191859186  4.88928867426743 -4.50090004500450
 1 -8.45985583458346  3.33044240304030 -5.03166309110911
 1 -8.67603519311931 -1.00430097299730 -4.58034903320332
 1 -8.57134811781178 -2.71691509660966 -3.90943358035803
 1 -9.75311539103910 -1.56998382178218 -3.28272517921792
 1 -4.12048940634063 -3.77564239083908 -1.43977726462646
 1  2.59419055205521 -5.97712565556556  1.41679763666367
 1  2.08936968036804 -5.34090106620662 -0.49532298189819
 1  3.74085620792079 -4.13097237903790  1.95218022562256
 1  2.45442042874287 -3.23114873597360 -1.33506604760476
 1  3.47155176847685 -1.92893645294529 -1.55412788328833
 1  4.01161333533353 -3.71027475667567 -2.09377830373037
 1  4.93096313721372 -1.30949737373737  0.47502938643864
 1  5.16174470177018 -2.47392902530253  1.75528040834083
 1  6.54897242394239 -3.72173536563656  0.49133701770177
 1  6.32694285468547 -2.94956256525652 -1.12744333983398
 1  7.29183811511151 -0.69189251435144  0.26110335583558
 1  7.45138724162416 -1.87053363646365  1.62775716101610
 1  8.93356746604660 -1.76522479767977 -1.15246858495850
 1  8.81764628332833 -4.14543331473147 -0.30555434783478
 1  10.41136047684769 -3.66967116921692 -0.27839795329533
 1  9.40241930333033 -3.48764985648565  1.21740218291829
 1  9.54679382998300  0.09196492269227  0.42598796259626
 1  10.20863096059606 -1.11721825572557  1.31100064006401
 1  11.89338447974797 -1.74910494239424 -0.28965333853385
 1  10.99747583428343 -1.06110901580158 -1.42684401800180
 1  11.79201023452345  1.21001543074307  0.13430387518752
 1  12.45166999029903  0.27741893329333  1.14988326852685
 1  13.18657545824582  0.64850928322832 -1.83025526422642
 1  14.70078941724172 -0.68222643534353  0.71713739373937
 1  13.94569014001400 -1.57912692899290 -0.72067838933893
 1  15.42174316271627 -0.67602080028003 -0.90487738023802
 1  13.41399959415942  2.48728334743474 -0.57674946264626
 1  14.21789849014902  1.67713800300030  1.10570778467847
 1  16.30557221302130  1.42904151685169 -0.78141463216322
 1  15.31680726412641  2.04142805560556 -1.95802718241824
 1  15.28918032263226  4.14816019401940 -0.90640263836384
 1  16.11024379447945  3.59804644604460  0.66909681008101
 1  18.23088677007701  3.19660115131513 -1.06782586218622
 1  16.29918063846385  4.69085561446145 -2.95044740454045
 1  18.06483240674067  4.29972948624863 -3.16276088118812
 1  16.95621582178218  2.98977004700470 -3.22215024962496
 1  18.14276032323232  5.18282950045005  0.46609827402740
 1  18.65740326262626  5.58203235543554 -1.39019593399340
 1  17.18075962686268  6.15835533863386 -0.60984504580458
 1 -4.71024632603260 -7.89775920902090  0.13578004030403
 1 -6.21041547184719 -7.22720980758076  0.88303181068107
 1 -4.63356152475248 -6.72139371497150  1.54655911251125
 8 -7.75303289488949  6.89069557035704 -0.45691347534753
 1 -9.16505480258026  6.24715035993599 -1.71913759655966

