%nproc=4
%Mem=2GB
# td=(NStates=1) iop(3/107=0140000000,3/108=0140000000) iop(3/107=0140000000,3/108=0140000000) CAM-B3LYP/6-31G(d,p) 

TD

0 1
12 -6.80173274537454  0.71460060416042  0.07439505900590
 6 -4.51941904840484 -1.94929335113511  0.51775205220522
 6 -4.20869268466847  2.86084771787179  1.06538942054205
 6 -9.06632933763376  2.98489251335134 -0.42822232393239
 6 -9.20623872147215 -1.87020004960496 -0.84866492519252
 7 -4.63558863076308  0.50811020872087  0.62539157125713
 6 -3.96638390399040 -0.79173888068807  0.66644720012001
 6 -2.56134955355536 -0.45399715891589  0.95207727002700
 6 -2.56304627042704  1.13676382518252  1.36597876037604
 6 -3.80034629752975  1.54721480668067  0.91584635933593
 6 -2.00348663436344  1.52614441034103  2.85390995379538
 6 -1.69689843824382 -0.79353191659166 -0.17723639733973
 6 -0.27887600590059 -0.96849855645565  0.27709678317832
 6  0.83560463966397 -1.01593883078308 -0.79712788658866
 8  0.88938900700070 -0.57148976147615 -1.90656164636464
 8  1.81331161776178 -1.81580187878788 -0.28923384588459
 7 -6.65483722592259  2.71880225022502  0.16903065096510
 6 -5.50325088598860  3.42091073427343  0.53705000120012
 6 -5.89327354255426  4.88058774357436  0.47981284988499
 6 -7.38921963536354  4.90978706920692  0.33206979027903
 6 -7.70972267616762  3.56721552995300 -0.07264243284328
 6 -4.95270019031903  6.04759218971897  0.69428709670967
 6 -8.24817637893789  6.12873979407941  0.13570309400940
 8 -7.93950786698670  7.32877449404941  0.26368422522252
 7 -8.74247780128013  0.41066192539254 -0.37751040014001
 6 -9.62004567696770  1.63276801210121 -0.32522357465747
 6 -11.00340697099710  1.33560343144314 -0.68731451265127
 6 -10.99321367886789 -0.09461855745575 -0.80390124562456
 6 -9.68756041934193 -0.45553371657166 -0.69391146784678
 6 -12.03901067636764  2.22107830093009 -0.90135478627863
 6 -12.27264038453845 -0.75929949224923 -1.27103523722372
 6 -12.44075093719372 -1.04901706690669 -2.94041683638364
 7 -6.90738722162216 -1.29716227752775 -0.09699234373437
 6 -7.94856751835183 -2.32372236893689 -0.37840103810381
 6 -7.54643222832283 -3.76973429582958 -0.35087609770977
 6 -6.10085570677068 -3.67424658555856  0.02358409780978
 6 -5.90171646034603 -2.17209602410241  0.16827301160116
 6 -8.54931345484549 -4.93264064186419 -0.23557637353735
 6 -4.94907111161116 -4.46351214931493  0.06996502220222
 8 -4.59867161586159 -5.62928346664666 -0.07252674607461
 6 -3.81287501290129 -3.34566512571257  0.56652129932993
 6 -3.28862237313731 -3.59838601410141  1.93285299829983
 8 -3.97046228632863 -3.96198293309331  2.92470113991399
 8 -1.86451812671267 -3.41802810811081  1.90563050225023
 6 -1.36971549364937 -3.62717780788079  3.05696012121212
 6  2.87999989278928 -1.99882505940594 -1.24661590569057
 6  4.19157292469247 -1.18916591769177 -0.82442797509751
 6  4.89980073547355 -0.58180505190519 -1.82247844944494
 6  4.98514249804980 -0.83514664936494 -3.36350333253325
 6  6.08484230883088  0.23567591469147 -1.07104366286629
 6  7.42836153015302 -0.68826460856086 -0.93222996029603
 6  8.55365792609261  0.20102573717372 -0.55646412691269
 6  9.90592368176818 -0.63493041334133 -0.32998130383038
 6  9.86021353765376 -1.54463327802780  0.96907127592759
 6  10.99658198819882  0.32548740294029 -0.02032719431943
 6  12.42053732423242 -0.24791348414841 -0.06904859365937
 6  13.60189173177318  0.71578885358536  0.36412931133113
 6  15.01752808800880 -0.05008173007301  0.46652131423142
 6  14.97382237033703 -1.01779405990599  1.60053997799780
 6  16.07199682808281  1.09810471247125  0.58780198549855
 6  17.47074655275528  0.51751697609761  0.14262738883888
 6  18.51348089548955  1.67743493469347 -0.08642878967897
 6  19.86333853495350  1.11947044184418 -0.30400048374837
 6  19.99959976127613  0.52158758905891 -1.55923171437144
 6  20.89832700160016  2.21058247624762 -0.14309940584058
 1 -3.21469210751075  3.56218746974697  1.57593699539954
 1 -9.56482046454645  3.71564064916492 -1.23281691559156
 1 -9.75067755935594 -2.83430382968297 -1.21450427632763
 1 -2.46429894669467 -0.96396401420142  2.04270431873187
 1 -1.81082042064206  1.60287076327633  0.60020647404740
 1 -0.98311969566957  1.23932224662466  2.99653036413641
 1 -1.87562573647365  2.77117569396940  2.99777589538954
 1 -2.69739207170717  1.19260714601460  3.92778864796480
 1 -1.85477449774978 -1.83594486748675 -0.65369315611561
 1 -1.81714688368837  0.00970949804980 -0.97875766656666
 1  0.19131713001300 -0.32466389968997  0.99055492069207
 1 -0.18390211001100 -2.01554788858886  0.82355258735874
 1 -4.08500303070307  6.34670249814982 -0.13005804810481
 1 -5.35188546914691  7.15235791169117  0.41555846194620
 1 -4.25157618581858  5.91871083208321  1.51600937323732
 1 -9.13214622872287  6.09561467066707 -0.37255363116312
 1 -12.20091964556456 -2.14631549904990 -0.82632705990599
 1 -13.17091330633063 -0.11026462666267 -1.01371900830083
 1 -13.34337216031603 -2.00675279067907 -3.34647176427643
 1 -12.95355231903191  0.25126254775478 -3.47496966646665
 1 -11.46050287468747 -0.92213553055306 -3.35765237263726
 1 -9.48842802610261 -5.07091364696470 -1.07129935793579
 1 -8.15116033063306 -5.87983799639964 -0.65125477737774
 1 -9.03147042704271 -5.09704166536654  0.92247685718572
 1 -3.06222580398040 -3.35332905780578 -0.17243555035504
 1  3.17799941534153 -3.18293556735674 -1.31892760986099
 1  2.50356464526453 -1.44500041504150 -2.29767000230023
 1  4.41072840054006 -0.87787053545355  0.39342294389439
 1  3.77109016601660 -0.96196966946695 -3.68410852585259
 1  5.67275085348535  0.03055438003800 -3.90572179607961
 1  5.52104593199320 -1.70057267156716 -3.80498468226823
 1  6.27718814071407  1.22008734613461 -1.63186580378038
 1  5.71400651005100  0.47618316611661 -0.00268453185319
 1  7.33550472937294 -1.58574677177718 -0.23618189658966
 1  7.62181758015802 -1.33467225752575 -2.14178365426543
 1  8.82009414081408  0.92463305810581 -1.25554834013401
 1  8.11743024112411  0.52148733693369  0.46088179657966
 1  10.19520196729673 -1.12990043374337 -1.32488964656466
 1  8.99403164746475 -2.30802961866187  1.21743010381038
 1  10.65844191359136 -2.17525140634063  1.19608149954996
 1  9.63600681228123 -0.67207843024302  1.92094339943994
 1  11.11827546534653  1.09640240014001 -0.77554472607261
 1  10.89000874747475  0.74395327092709  1.06018989928993
 1  12.57544508670867 -1.09664210371037  0.44841852515252
 1  12.14957711171117 -0.70121834243424 -1.08607160466047
 1  13.65591046104611  1.67312685768577 -0.41606051065107
 1  13.28137018181818  1.29589384068407  1.48494428382838
 1  14.95929735553555 -0.64517203320332 -0.29419761096110
 1  14.56992689258926 -0.46459606410641  2.57842061506151
 1  14.30533780728073 -1.91715938783878  1.34518201630163
 1  15.74792182528253 -1.78076165926593  1.44831130883088
 1  15.59209034393439  1.95026501990199 -0.12502247694769
 1  16.64392842544254  1.59990952645265  1.76486480968097
 1  17.54237555265527 -0.24201103050305  1.00412059875988
 1  17.39233675787579  0.08243641284128 -0.75807718511851
 1  18.13276828392840  2.09790633843384 -1.18238122642264
 1  18.57018701480148  2.36920082698270  0.94513118361836
 1  20.13774633583358  0.43297614381438  0.33265661646165
 1  19.99791810981098  1.21299634923492 -2.31708383358336
 1  20.97587187718772 -0.05550735253525 -1.59035316871687
 1  19.30523325032503 -0.21391911031103 -1.60126820152015
 1  21.04566134473447  2.79195877497750  0.74523527712771
 1  21.60278801910191  1.95463204590459 -0.27236995199520
 1  20.67333398629863  3.12513000020002 -0.89055385168517
 1 -0.81725735083508 -4.35058780818082  2.43002135013501
 1 -1.82154183518352 -4.00672794649465  4.22337297389739
 1 -1.22543655695569 -2.71641011811181  3.44717887108711
 8 -12.00189856415642  3.45666046524652 -0.82408422212221
 1 -13.22645315681568  1.96913815391539 -0.86396700170017

