%nproc=4
%Mem=4GB
# td=(NStates=1) iop(3/107=0140000000,3/108=0140000000) iop(3/107=0140000000,3/108=0140000000) CAM-B3LYP/6-31G(d,p) 

TD

0 1
12 -5.49376088268827  1.26897177147715  0.08862746794679
 6 -4.91449183638364 -2.18365682898290 -0.41177804460446
 6 -3.50249903900390  1.14798508330833  2.82342771607161
 6 -6.17425622132213  4.56564982918292  0.62005221402140
 6 -7.94268003510351  1.21737258795880 -2.39357703120312
 7 -4.36404065736574 -0.29916810861086  1.05774711351135
 6 -4.31183471097110 -1.67455115671567  0.73655600520052
 6 -3.30193331783178 -2.45388869166917  1.52937730143014
 6 -3.05154832583258 -1.44667755865587  2.74259081518152
 6 -3.64545197259726 -0.07341996969697  2.21849643484348
 6 -3.66199923932393 -1.83192663406341  4.10685338473847
 6 -1.97759295249525 -2.76572398169817  0.80005531103110
 6 -1.02756439993999 -3.62824040464046  1.49289287728773
 6  0.18831393189319 -3.87302114281428  0.63060125482548
 8  0.49602966726673 -3.40747806140614 -0.44879111331133
 8  1.05700254595460 -4.79081869916992  1.33768837613761
 7 -4.85507632393239  2.58841821872187  1.37781801350135
 6 -4.07621971177118  2.37010443214321  2.38569917321732
 6 -3.72331183488349  3.58854735693569  3.16750730693069
 6 -4.48019857255726  4.61286281458146  2.55457472877288
 6 -5.17982408660866  3.93800189538954  1.46747283958396
 6 -2.89001436453645  3.71529890569057  4.45265945534554
 6 -4.60423695429543  6.07596501700170  2.94452395719572
 8 -3.88448849684968  6.56835472347235  3.84801870177018
 7 -6.87050084998500  2.70573046884688 -0.72702435873587
 6 -7.00165288008801  3.95661527872787 -0.38438012671267
 6 -7.91348653505351  4.65611233603360 -1.22880699019902
 6 -8.47134658795880  3.67277420732073 -2.12189113351335
 6 -7.77978686918692  2.43541955075508 -1.68591453795380
 6 -8.23027601850185  6.03016292569257 -1.19975948474847
 6 -9.44185854915492  3.91691208940894 -3.16681131393139
 6 -8.64346580028003  4.06396454265426 -4.58809521352135
 7 -6.36086450545054 -0.05955097279728 -1.11482657465747
 6 -7.35540507010701  0.00149408080808 -2.05264947564757
 6 -7.48102560976098 -1.34015571917192 -2.67945046764676
 6 -6.60497004580458 -2.21711128292829 -2.08421458715872
 6 -5.91946036143614 -1.39135270037004 -1.09715584598460
 6 -8.35321077887789 -1.50652077807781 -3.86386328252825
 6 -6.09574324142414 -3.49788537243724 -2.11175473057306
 8 -6.47139153465347 -4.44058175657566 -2.78488475357536
 6 -4.91967052915292 -3.65577362996300 -0.98578089788979
 6 -5.23310078747875 -4.59490493159316  0.17025069686969
 8 -5.68371414301430 -4.47369637773777  1.28112447584758
 8 -4.99652935113511 -5.89747094349435 -0.36202934753475
 6 -5.36421398559856 -6.98627048034803  0.52418424822482
 6  2.28974994819482 -5.02564368456846  0.66647060146015
 6  3.43564809980998 -4.09648980988099  0.99914781458146
 6  3.97804719491949 -3.15435830593059  0.29243287828783
 6  3.56874121302130 -2.98411335263526 -1.17658716321632
 6  5.23544997079708 -2.40251529912991  0.83275707450745
 6  6.49987485878588 -2.66764969016902  0.03087455485549
 6  7.62854817841784 -1.83486284178418  0.65654134463446
 6  8.99746056735674 -2.06136096969697 -0.09047683018302
 6  9.55161154285429 -3.40924156455646  0.14467100940094
 6  9.99560013911391 -0.88583882128213  0.43124564006401
 6  11.35035233763376 -0.87711731863186 -0.37204597079708
 6  12.17716540514051  0.23572820032003  0.13817066466647
 6  13.48554100990099  0.45568043794379 -0.65804056725673
 6  14.40742904190419 -0.77633703630363 -0.30748489938994
 6  14.15289122872287  1.71147731933193 -0.19056831163116
 6  15.20978516891689  2.26326435463546 -1.11203619861986
 6  15.90757334173417  3.57619237203720 -0.71877249044904
 6  17.20420566966697  3.86700454205421 -1.46836077127713
 6  17.09365195489549  4.16628151985199 -2.99352157635764
 6  17.89966937303730  5.13715898119812 -0.70162962186219
 1 -3.03531925472547  1.14674895029503  3.71108157655766
 1 -6.28880685948595  5.60146552695269  0.44158315001500
 1 -8.57974838203820  1.12885318821882 -3.21961744054405
 1 -3.60324138893890 -3.31054637003700  2.03125118591859
 1 -1.83400052395240 -1.42053971557156  2.86103737983798
 1 -3.01257103620362 -2.69902306350635  4.56548009200920
 1 -3.90557134983498 -1.21450135453545  4.82021405120512
 1 -4.75327783948395 -2.31796087698770  4.00980493099310
 1 -2.13232854655465 -3.08075759305931 -0.26832745654566
 1 -1.68955678807881 -1.63559267556756  0.53204132573257
 1 -0.63890932443244 -3.37943923952395  2.53014723342334
 1 -1.53878860046005 -4.59462659385939  1.64118591659166
 1 -1.84985509930993  3.60280980538054  4.15768167786779
 1 -3.04067505760576  4.59683688968897  5.00009626732673
 1 -3.06353934893489  2.81658265576558  5.10744575057506
 1 -5.59815287918792  6.54090828522852  2.45886120752075
 1 -10.03348248174817  3.30539119621962 -3.11367461916192
 1 -9.95006580448045  4.80334417851785 -3.19438972967297
 1 -9.31592139193920  4.10100851485149 -5.55763096539654
 1 -8.18398790819082  4.99994974037404 -4.36238619361936
 1 -7.95079492849285  3.41419077787779 -4.85173509830983
 1 -8.10087767736774 -0.83816435933593 -4.69126012431243
 1 -8.25192617561756 -2.61418482358236 -4.19114175117512
 1 -9.39157923742374 -1.31912873627363 -3.57645455215522
 1 -4.08158551595159 -4.17572239883988 -1.45703899079908
 1  2.57879901290129 -6.14616255925593  0.83578953585359
 1  2.31955269866987 -4.85846282238224 -0.30342379197920
 1  3.75143726602660 -4.22077135893589  2.13671867946795
 1  2.58229321602160 -3.35234085518552 -1.38644118511851
 1  3.64363897719772 -1.93426698599860 -1.56573904440444
 1  4.37232940694069 -3.52000572977298 -1.69872879877988
 1  4.97364740564056 -1.33167959195920  0.72424430793079
 1  5.37800632793279 -2.80904253665366  1.75784066436644
 1  6.85463298999900 -3.76077927002700 -0.01795391139114
 1  6.25372553295330 -2.31540914991499 -0.87065766126613
 1  7.15120405170517 -0.97288061316132  0.24872211771177
 1  7.78366046894689 -2.10723730683068  1.70455484078408
 1  8.88977308660866 -1.90164844004400 -1.15007834593459
 1  8.93872839153915 -4.20877964936494 -0.31189498189819
 1  10.60724006480648 -3.69678388048805 -0.14717483098310
 1  9.73571263266327 -3.73493458495850  1.31451189388939
 1  9.26521567216722  0.01178690489049  0.14889025282528
 1  10.39273937143714 -0.80483701760176  1.45358489848985
 1  11.86292143344335 -2.00084011591159 -0.16653102630263
 1  11.02582866956696 -0.98884178907891 -1.23441477507751
 1  11.52633366686669  1.09368379757976 -0.05969552475248
 1  12.44207903120312  0.35807699909991  1.26607488768877
 1  13.45012181288129  0.43550798309831 -1.79318155685569
 1  14.58730806910691 -0.67203541624162  0.66861254125413
 1  13.79625519651965 -1.73063207950795 -0.73927024852485
 1  15.38645963436344 -0.81039423762376 -0.95647253975398
 1  13.27848604280428  2.52654727382738 -0.21273306100610
 1  14.71558825912591  1.88042833203320  0.88514572847285
 1  16.16228788458846  1.67704631733173 -1.27152364306431
 1  14.94339992339234  2.32624653745375 -1.97276865656566
 1  15.12299370397040  4.53380875887589 -0.95604760286029
 1  16.14326709680968  3.42546918831883  0.37284718511851
 1  18.00294397579758  3.13071456265627 -1.24424350395039
 1  16.38107882828283  5.00815734463446 -3.04058641844184
 1  17.94367029052905  4.43600311361136 -3.37236184128413
 1  16.63724392459246  3.23038410841084 -3.35865389999000
 1  18.13286933413341  5.12304352185219  0.43811547574757
 1  18.76587410971097  5.47254140634063 -1.25737265166517
 1  17.24582613351335  6.08722822592259 -0.76867092839284
 1 -5.01249655105511 -7.71909134223422 -0.31827536523652
 1 -6.54811924222422 -7.00320740734073  0.59304281178118
 1 -4.79771794039404 -6.65717729332933  1.49981443804380
 8 -7.72377996959696  6.82967946874687 -0.40690847484748
 1 -9.03742203930393  6.08918456335634 -1.93014869766977

