%nproc=4
%Mem=2GB
# td=(NStates=1) iop(3/107=0140000000,3/108=0140000000) iop(3/107=0140000000,3/108=0140000000) CAM-B3LYP/6-31G(d,p) 

TD

0 1
12 -6.69983255535554  0.65321446554655  0.08051567106711
 6 -4.57503460996100 -2.04470289208921  0.43973425042504
 6 -4.40911272667267  2.70401203430343  0.94032691429143
 6 -8.82721542624262  3.16838086218622 -0.29755925762576
 6 -9.32971106870687 -1.65393842344234 -0.61348140684068
 7 -4.71949702160216  0.30125952365237  0.83528256035603
 6 -3.98650591619162 -0.81494120092009  0.79099965536554
 6 -2.57537095569557 -0.53953571277128  1.00424248654865
 6 -2.47724769056906  0.97182733153315  1.31846400890089
 6 -4.15368163106311  1.29058914411441  1.11450622532253
 6 -2.24543082878288  1.24884668056806  2.86100066286629
 6 -1.54954370277028 -0.77506006940694 -0.29888856255626
 6 -0.22479059735974 -1.39779148574857  0.38769784328433
 6  0.80856193539354 -1.32390962786279 -0.81094926872687
 8  0.64143421152115 -0.97458007050705 -2.06920791099110
 8  1.93098338493849 -2.12838313691369 -0.41969689218922
 7 -6.58613035523552  2.59881025102510  0.20497424532453
 6 -5.54270483138314  3.31776041924192  0.62724902110211
 6 -5.93116733193319  4.68965865066507  0.56665153375338
 6 -7.25266597999800  4.81058714921492  0.22199878317832
 6 -7.67171887578758  3.49257806620662  0.07397222862286
 6 -5.09101402170217  5.68950638113811  0.84463213121312
 6 -8.14372593389339  6.04365128522852  0.23465298899890
 8 -7.63920783698370  7.24556617321732  0.39319717651765
 7 -8.77174072757276  0.69913077227723 -0.38187083618362
 6 -9.52811648404841  1.75740047534753 -0.49156020832083
 6 -10.79054568486849  1.60012988408841 -0.80864664586459
 6 -10.82726708420842  0.27976888128813 -0.99388024352435
 6 -9.61346300960096 -0.34210237343734 -0.75818789548955
 6 -11.89147592289229  2.53219941304130 -0.82193684448445
 6 -12.01180430093009 -0.51775533783378 -1.24907304100410
 6 -12.18417527962796 -0.94682684788479 -2.83226602130213
 7 -6.88005448834883 -1.36578914021402 -0.04951759625963
 6 -7.96983964556456 -2.18443844054405 -0.30744394239424
 6 -7.53469105420542 -3.56853417581758 -0.41049205930593
 6 -6.27932355355536 -3.53801296219622 -0.09878813941394
 6 -5.90875716441644 -2.14830364486449  0.10228641294129
 6 -8.43110163366337 -4.82343972177218 -0.53646646254625
 6 -5.19503570807081 -4.50244604270427  0.10946897259726
 8 -5.10127187588759 -5.67057759605961  0.05442594919492
 6 -3.85240896629663 -3.43691425062506  0.56978162536254
 6 -3.32251576247625 -3.73903007850785  1.87109682268227
 8 -3.97109234933493 -3.86328306310631  2.85809447924792
 8 -1.88015969086909 -3.77897420272027  1.73458339753975
 6 -1.10020854295430 -4.00543563366337  3.04387881308131
 6  2.90857275007501 -2.34650982788279 -1.42050329442944
 6  4.00739450685069 -1.36852385348535 -1.12946847914791
 6  5.04980573597360 -0.98851572297230 -1.92069827142714
 6  5.25825980978098 -1.74405754045405 -3.33202018421842
 6  6.11157498209821 -0.03265091799180 -1.46270282878288
 6  7.43750244424442 -0.50766654875488 -1.05308204550455
 6  8.38855141544154  0.39173480808081 -0.63816229672967
 6  9.80241333073307 -0.40083700400040  0.15886758105811
 6  9.44234175047505 -0.79204801950195  1.57061142994299
 6  11.03773610361036  0.64055891009101  0.02814765316532
 6  12.36640191069107  0.02507381458146  0.21968027922792
 6  13.39264080668067  1.16812408710871  0.26479937833783
 6  14.74328066326633  0.49586286438644  0.52595725782578
 6  15.06618160626063 -0.01514379487949  1.89607953195320
 6  15.92410203860386  1.49873477547755  0.19108231353135
 6  17.23664314241424  0.91618684308431 -0.20207708160816
 6  18.57080662806281  1.87835502670267 -0.23042318911891
 6  19.91111331243124  1.12641113591359 -0.28985906960696
 6  20.01869167046705  0.20184561486149 -1.61941773297330
 6  21.16433360226023  1.86326774477448 -0.13005810171017
 1 -3.38392903120312  3.45726697769777  1.31674107580758
 1 -9.75042902540254  3.90508959405941 -0.20302393629363
 1 -9.88341083268327 -2.36112651195120 -0.87743056895690
 1 -2.14950746754675 -1.31299891769177  1.82605265356536
 1 -1.78915825442544  1.56011648784878  0.72902935633563
 1 -1.48558994269427  1.05726404080408  3.31236194729473
 1 -2.47597577147715  2.33462203860386  3.13144926272627
 1 -2.89683201570157  0.47801568686869  3.65254112321232
 1 -1.82566158645865 -1.37530880388039 -1.02853063986399
 1 -1.14458962796280  0.07167569466947 -0.65262505330533
 1  0.37026502480248 -0.56727816111611  1.14788065326533
 1 -0.12258597839784 -2.17812414621462  0.78173840594059
 1 -4.11583611401140  5.73576140404040  0.59580453815382
 1 -5.71350163076308  6.64587726362636  1.20097700380038
 1 -4.93139416761676  5.42113107410741  2.06906467876788
 1 -9.29646266036604  5.77294240344034 -0.01485786158616
 1 -12.01678123172317 -1.56360722822282 -0.81886631383138
 1 -13.12112832783278  0.18052445224522 -1.09969760616062
 1 -13.41105892899290 -1.52010412581258 -3.02826994409441
 1 -12.59807677147715  0.09336675817582 -3.64425659515952
 1 -11.38197502190219 -1.20491380838084 -2.92054866226623
 1 -8.65931511481148 -5.18493504910491 -1.59426165416542
 1 -7.99470468506851 -5.80737074967497 -0.11208085998600
 1 -9.40633791379138 -4.41525348654866  0.21525613511351
 1 -3.01555113651365 -3.34873859875987 -0.37923623042304
 1  3.05484710011001 -3.37614488828883 -1.06767248434843
 1  2.81824611341134 -2.18740465546555 -2.54738497379738
 1  3.94397172487249 -0.80202295069507 -0.04121051945195
 1  4.79286234323432 -1.42537601010101 -4.03994410941094
 1  6.37612119051905 -1.62450112551255 -3.40205142904290
 1  5.02257608500850 -2.82615522982298 -2.99667385118512
 1  6.18068849074907  0.80447578497850 -2.37835045224523
 1  5.79061417081708  0.65147069486949 -0.75638990239024
 1  7.24503568246825 -1.05904410151015 -0.02090036843684
 1  7.73800919931993 -1.52779156945695 -1.96893636953695
 1  8.85172730413041  1.06389698449845 -1.44995778107811
 1  8.16928542664266  1.38614380258026  0.08323403180318
 1  10.00864331143114 -0.93311075477548 -0.63414057165717
 1  8.34519676397640 -1.47639645534553  1.60157851865187
 1  10.38948501790179 -1.38141202240224  2.19169106050605
 1  9.33154636623662 -0.07591881428143  2.47795910101010
 1  10.93668730653065  1.13821658155816 -0.95140231183118
 1  10.83896364296429  1.50919979557956  0.75716959725973
 1  12.05535307750775 -0.52606504600460  1.52272595589559
 1  12.37775992999300 -0.87920614121412 -0.81838483598360
 1  13.40683555355536  1.73771331633163 -0.26237514211421
 1  13.10397244204420  1.69335358665867  1.14551034043404
 1  14.78698012381238 -0.13129064506451 -0.35189338053805
 1  15.14415431533153  0.50650104560456  2.85023779677968
 1  14.32103937743774 -0.78543621552155  1.72269976807681
 1  16.01813884698470 -0.61616519961996  1.63615009270927
 1  15.32796393129313  2.03506349974998 -0.61985195989599
 1  16.08606263886389  1.93998353385339  1.00885920912091
 1  17.69178049314931  0.09681285188519  0.78057824452445
 1  17.06483400760076  0.46386455565556 -1.26231760916092
 1  18.63600860796080  2.64872141994200 -1.21737472577258
 1  18.68748874497450  2.43397730463046  0.59220589108911
 1  19.80277283848385  0.25502834903490  0.44449780058006
 1  20.07734605260526  0.79222427202720 -2.41527365256526
 1  21.08203249324933 -0.38452025382538 -1.51262539593959
 1  19.37522024902490 -0.69847756615662 -1.69193726842684
 1  21.03926070467046  2.44461404050405  0.99695044864486
 1  22.24502224252425  1.24425100780078 -0.04911762676268
 1  21.29524617751775  2.69042652985299 -0.94009880618062
 1  0.16987136203620 -4.33435618501850  2.79609795779578
 1 -1.78067774877488 -5.05459273297330  3.43268390499050
 1 -1.06100011331133 -2.79199767686769  3.78566271947195
 8 -11.64102247654765  3.72727752695270 -0.75944775847585
 1 -12.88573908540854  2.04413565366537 -1.01932253725372

