%nproc=4
%Mem=4GB
# td=(NStates=1) iop(3/107=0140000000,3/108=0140000000) iop(3/107=0140000000,3/108=0140000000) CAM-B3LYP/6-31G(d,p) 

TD

0 1
12 -5.73715522212221  1.20569544384438  0.20443904910491
 6 -5.03918430563056 -2.21530999429943 -0.40631749854986
 6 -3.24965375447545  1.13081336613661  2.73356873017302
 6 -6.23618241394139  4.54250751495150  0.73414362316232
 6 -8.02423819091909  1.16010686138614 -2.43281095459546
 7 -4.36079033233323 -0.41825001680168  0.95193653245325
 6 -4.24227775527553 -1.67530123172317  0.52669501910191
 6 -3.18032115661566 -2.33399670247025  1.40735509920992
 6 -2.94459763076308 -1.38901179207921  2.59179573567357
 6 -3.49764719211921 -0.06606923462346  2.03672825802580
 6 -3.55557859725973 -1.74106754815482  3.94723742314231
 6 -1.90087528072807 -2.56358376767677  0.66230153565357
 6 -0.92969461296130 -3.50473805440544  1.45313890189019
 6  0.25860096059606 -3.88436227692769  0.62015020972097
 8  0.32617268156816 -3.51487880148015 -0.51844807900790
 8  1.06571341704170 -4.80884050135013  1.24774938223822
 7 -4.98731954825483  2.58898827572757  1.50811104280428
 6 -3.96481857165717  2.31506892859286  2.36875747904790
 6 -3.73345284898490  3.58397689988999  3.14541509770977
 6 -4.43559411211121  4.55841737003700  2.52954222552255
 6 -5.32561866606661  3.96462455765577  1.45069116141614
 6 -2.78641400450045  3.84077145294529  4.31414560396040
 6 -4.64542107270727  6.01424884538454  2.86442594739474
 8 -4.24860490849085  6.60906879487949  3.91524542444244
 7 -6.95389918981898  2.55435533133313 -0.64471612791279
 6 -6.97810052485249  3.90018963616362 -0.25733742244224
 6 -7.87072225862586  4.63909063386339 -1.13181729122912
 6 -8.50724017731773  3.67115404530453 -1.99608855325533
 6 -7.81799068956896  2.47007301610161 -1.68105405190519
 6 -8.25191818271827  6.04624453385339 -1.16978648744874
 6 -9.44123848714872  3.93653405160516 -3.17847248004800
 6 -8.70661211491149  4.29821796799680 -4.42460886488649
 7 -6.27086550555055 -0.11100611831183 -1.16036112811281
 6 -7.36427595719572 -0.00997706630663 -2.13320753145315
 6 -7.53188069526953 -1.35912761636164 -2.74828735133513
 6 -6.67454700350035 -2.15210478227823 -2.13897006270627
 6 -5.95082349774977 -1.43719728482848 -1.12617874827483
 6 -8.56485194299430 -1.58312843884388 -3.83666056225623
 6 -6.27629129622962 -3.55936152005201 -2.09058261336134
 8 -6.63013740924092 -4.53781147954795 -2.65196146124612
 6 -5.19044760686069 -3.59463751635163 -1.04114643444344
 6 -5.47400487788779 -4.52461790289029  0.16314998679868
 8 -5.84515028662866 -4.37211621972197  1.26731309470947
 8 -5.16195589378938 -5.85312650905091 -0.22257540214021
 6 -5.36070363456346 -6.90399225252525  0.77435926572657
 6  2.38012898609861 -5.09310043024302  0.69369332373237
 6  3.48871340634063 -4.12758291919192  0.94142204200420
 6  4.09890928112811 -3.31532440254025  0.13753738873887
 6  3.73826816571657 -3.10362530383038 -1.27837734223422
 6  5.30799722552255 -2.54192924052405  0.76241003980398
 6  6.66059093039304 -2.93206613181318  0.14590605800580
 6  7.73648897249725 -1.88146750225023  0.49390508100810
 6  9.17834865616562 -2.07284211781178 -0.01431921442144
 6  9.68335471717172 -3.44758539893989  0.27632417471747
 6  9.99089966906691 -0.89770000740074  0.40541305680568
 6  11.43451075347535 -0.93767337423742 -0.15917468366837
 6  12.27482517111711  0.32347697519752  0.28208505610561
 6  13.48297075287529  0.52754762466247 -0.57092185538554
 6  14.41081938093809 -0.79460886348635 -0.49179333023302
 6  14.21285722532253  1.77334350595059 -0.16367562236224
 6  15.43728791919192  2.24483251145114 -0.98997399239924
 6  15.99987257165717  3.64362911571157 -0.76751736493649
 6  17.36265151425143  4.03222106370637 -1.31493542874287
 6  17.32298488818882  3.99194408610861 -2.88839106330633
 6  17.81502090819082  5.36200146544654 -0.81412087098710
 1 -2.43725944874488  0.95434971037104  3.32481294969497
 1 -6.47157513631363  5.80719610001000  0.84521351305130
 1 -8.79858026522652  1.25628593149315 -3.12767824662466
 1 -3.73384444924492 -3.25001031643164  1.71792985378538
 1 -1.95533265716572 -1.15151281288129  2.78606988308831
 1 -3.12663244234423 -2.62778593979398  4.18938248224822
 1 -3.43449424212421 -1.03989389378938  4.73888591839184
 1 -4.75169768146815 -1.91206028692869  3.89912386288629
 1 -2.11227654135414 -2.92997251455145 -0.34151477527753
 1 -1.24821265366537 -1.68078719501950  0.53600172177218
 1 -0.53464889838984 -2.74082537813781  2.40058427712771
 1 -1.59156387798780 -4.17669480068007  1.69485128312831
 1 -1.82693280708071  3.52206173057306  3.99482539223922
 1 -2.98667965806581  4.87829503550355  4.68097435513551
 1 -3.08774176917692  3.30665166266627  5.05191019701970
 1 -5.32110517441744  6.53852804720472  2.05570089148915
 1 -10.02351148464846  3.26098675577558 -3.31722497419742
 1 -9.97443824172417  4.90575441954195 -2.99819010971097
 1 -9.44276407620762  4.41934034803480 -5.37762296459646
 1 -8.12119162856286  5.19252899829983 -4.46392634763476
 1 -7.68161801080108  3.57015637443744 -4.55341526632663
 1 -8.52451004060406 -1.20048059095910 -4.79714071237124
 1 -8.52461344434444 -2.60524392949295 -4.05033767076708
 1 -9.51980205970597 -1.20472729612961 -3.44913181988199
 1 -4.24500185758576 -3.75642046864686 -1.45847913481348
 1  2.45161629462946 -6.14720266326633  0.99722567946795
 1  2.40238098149815 -5.26416339243924 -0.40821427102710
 1  3.77224934723472 -4.15268455025503  1.85688069566957
 1  2.77202218891889 -3.14343996509651 -1.25151769276928
 1  4.09558417171717 -2.12031559085909 -1.48339080958096
 1  4.31050322432243 -3.60969469866987 -1.84207313321332
 1  5.21701174207421 -1.46947337133713  0.34279616311631
 1  5.46458498579858 -2.46810844324432  1.79346422672267
 1  6.92078960566057 -3.99650284238424  0.37985586958696
 1  6.51617177757776 -2.84212182118212 -1.04468506400640
 1  7.29902883418342 -1.01548487358736  0.04736198169817
 1  7.85978808170817 -1.55727231033103  1.76249063436344
 1  9.05090920022002 -1.84763303850385 -1.06452979107911
 1  8.94940945964596 -4.22125089648965 -0.18355214761476
 1  10.75446478727873 -3.79532373447345  0.08485837233723
 1  9.70382944434443 -3.62567365886589  1.38402884558456
 1  9.73077222782278  0.12943867006701 -0.06922155835583
 1  10.01368146564656 -1.07592412631263  1.38849838983898
 1  12.01435657695770 -1.93477350925093  0.19383501030103
 1  11.58507459415942 -0.91894479937994 -1.14175550915092
 1  11.73786481998200  1.25522995219522  0.29301974677468
 1  12.55958078137814  0.15579677107711  1.30885916611661
 1  13.16176297699770  0.69021345364536 -1.68545078377838
 1  14.54377371567157 -0.77940615331533  0.62735841584158
 1  13.87163273427343 -1.61855087138714 -0.82421874337434
 1  15.26087707610761 -0.65615881408141 -1.20063695619562
 1  13.36552474667467  2.67673229232923 -0.28925071277128
 1  14.58290499079908  1.48639892909291  0.85405261916192
 1  16.06263791959196  1.26214482718272 -0.86032252295230
 1  15.36950253365337  2.34538845164516 -2.15498687838784
 1  15.14050545514552  4.41920729872987 -0.98692069016902
 1  16.15875864596460  3.72554919631963  0.31421132153215
 1  17.93227690909091  3.06656814801480 -0.94124320392039
 1  16.50404112451245  4.64222075097510 -3.37854021382138
 1  18.18024394789479  4.19873938723872 -3.29298390349035
 1  17.14761496169617  2.93464453445345 -3.23811184578458
 1  17.65627167436744  5.63865508300830  0.34453611781178
 1  18.93698122042204  5.34585873807381 -1.17022393679368
 1  17.12174372527253  6.21199070217022 -1.34200826212621
 1 -4.74861016241624 -7.92744217731773  0.43579004130413
 1 -6.33474790509051 -6.98978606520652  0.74423793129313
 1 -4.99252742134213 -6.60837241284128  1.84549900650065
 8 -7.76810440204020  6.78189469026903 -0.44383216721672
 1 -8.91756005310531  6.23134877977798 -1.80158584138414

