%nproc=4
%Mem=4GB
# td=(NStates=1) iop(3/107=0140000000,3/108=0140000000) iop(3/107=0140000000,3/108=0140000000) CAM-B3LYP/6-31G(d,p) 

TD

0 1
12 -5.64224573117312  1.20212508680868  0.23349195439544
 6 -5.05136552375238 -2.09788825212521 -0.34815168196820
 6 -3.39726851595160  1.18888917371737  2.83650902420242
 6 -6.15535433113311  4.58982224642464  0.64534474327433
 6 -7.98972473957396  1.10644149484949 -2.42267994149415
 7 -4.36896114941494 -0.25133332513251  1.03495483428343
 6 -4.25068859635964 -1.56467016861686  0.66519886948695
 6 -3.24177730223022 -2.24415771857186  1.53856822052205
 6 -2.99988315931593 -1.29499239013901  2.69028558465847
 6 -3.63895132253225 -0.00124275197520  2.14165875107511
 6 -3.47777081648165 -1.84851829322932  3.97295999539954
 6 -1.98426361956196 -2.70440785008501  0.73538884438444
 6 -0.94903654715472 -3.60138771937194  1.44064765276528
 6  0.23152825332533 -3.88102194289429  0.46144433913391
 8  0.41136120042004 -3.38907622122212 -0.59507574177418
 8  1.02906975267527 -4.89272889018902  1.12067667496750
 7 -4.84046486278628  2.51419079597960  1.46465669736974
 6 -3.96405849564957  2.39317673937394  2.46812741604160
 6 -3.74414391809181  3.68959746194619  3.22689324552455
 6 -4.56212676537654  4.57000852915291  2.56721599289929
 6 -5.25402150635064  3.86919501470147  1.50122621492149
 6 -2.93521888498850  3.86742411821182  4.37122131153115
 6 -4.63468999959996  6.01185860636064  2.96522602740274
 8 -4.03914396239624  6.58026591459146  3.88959285918592
 7 -6.92061586148615  2.61392128792879 -0.73065472177218
 6 -6.91152386718672  3.95148476567657 -0.43732542124212
 6 -7.72980816721672  4.55076180098010 -1.30588469796980
 6 -8.40146960026003  3.54112104200420 -2.13069201360136
 6 -7.77209610011001  2.37809381818182 -1.70351629812981
 6 -8.14543753465347  6.04452436183618 -1.28329783858386
 6 -9.34574893819382  3.84687508570857 -3.22479711251125
 6 -8.75625707940794  4.06104425062506 -4.59227563156316
 7 -6.39241766076608 -0.14759977767777 -1.07084217621762
 6 -7.38213774337434 -0.05516158475848 -2.06726093679368
 6 -7.55072257945795 -1.37539924352435 -2.73357588018802
 6 -6.71571111991199 -2.16911648344834 -2.02207837353735
 6 -5.97648606400640 -1.39784334943494 -1.03362949334933
 6 -8.55169062686269 -1.55242536853685 -3.76154305050505
 6 -6.21384505160516 -3.58119370327033 -1.96300985608561
 8 -6.63962835833583 -4.54771246964696 -2.52090835593559
 6 -5.04501306340634 -3.56485453805381 -0.88711103090309
 6 -5.44176165356536 -4.68511395249525  0.17085075687569
 8 -5.81660743234323 -4.46108511661166  1.33434979837984
 8 -5.15070476867687 -5.94731592799280 -0.27758090269027
 6 -5.51634919911991 -6.96787864116412  0.65733756355636
 6  2.34925589878988 -5.03666478667867  0.60550450485049
 6  3.30533506850685 -3.93409357025703  1.00313821362136
 6  4.05114450465047 -3.18665153525353  0.12464609960996
 6  3.84431877077708 -3.09552449374937 -1.37303680818082
 6  5.07768419421942 -2.31543659125913  0.60777457625763
 6  6.48066293759376 -2.65569849504951 -0.10254878747875
 6  7.62406773037304 -1.89543889938994  0.54973066356636
 6  9.05491631293129 -1.97347218081808 -0.16200398289829
 6  9.57471385308531 -3.54093473387339 -0.10170362806281
 6  10.10706128522852 -1.10022025942594  0.56662917841784
 6  11.36440374277428 -0.90949055595560 -0.26803556975698
 6  12.21336902550255  0.31402603010301  0.18930577817782
 6  13.51842429822982  0.51671654155416 -0.59077384058406
 6  14.45267356635664 -0.65196459905991 -0.37038118901890
 6  14.20746668626863  1.79713588518852 -0.13911316611661
 6  15.42136632703270  2.22636066426643 -1.08837383238324
 6  15.99372195659566  3.58176292909291 -0.66051666486649
 6  17.36532178127813  3.96127396899690 -1.26432036723672
 6  17.21111370107010  4.10616550825082 -2.74224644884488
 6  18.00224963106310  5.27276254155416 -0.61116057495750
 1 -2.88114383718372  1.03434771017102  3.67293776217622
 1 -6.48234621342134  5.61688706910691  0.91022001370137
 1 -8.65207561476148  1.09267957085709 -3.19839531833183
 1 -3.65774683948395 -3.15118043344334  2.10097815861586
 1 -1.88502562646265 -1.23305096669667  3.01657293339334
 1 -2.72457223632363 -2.42574573577358  4.33816736073607
 1 -3.38211900460046 -0.97773767816782  4.71681371117112
 1 -4.59500201190119 -2.34536361726173  3.81374532503250
 1 -2.20921623532353 -3.40947046434643 -0.23685430923092
 1 -1.43577140954095 -1.81039015531553  0.17998612021202
 1 -0.38636406990699 -3.00401169676968  2.34830904960496
 1 -1.53019774137414 -4.51723885508551  1.92873467146715
 1 -1.80080019381938  4.01765128952895  4.00467637733773
 1 -3.28187917801780  4.87255446144614  4.83247950565057
 1 -3.04854784978498  3.05627662516252  4.96674168016802
 1 -5.27374043794379  6.62856705110511  2.12498782018202
 1 -10.19159829332933  3.13947460456046 -3.25463871557156
 1 -9.92130292819282  4.77385122922292 -2.82502279297930
 1 -9.48279807960796  3.87986640064006 -5.54743994629463
 1 -8.41709121852185  5.08183792919292 -4.58043799879988
 1 -7.93336318531853  3.35145450425043 -4.75333525832583
 1 -8.40134772437244 -1.07249779267927 -4.60633163146315
 1 -8.55696667966797 -2.63715712081208 -4.06841947894789
 1 -9.68963904340434 -1.32676950035004 -3.37340424712471
 1 -4.18839619701970 -3.92543737033703 -1.48611189808981
 1  2.44666579957996 -6.17477542054205  0.93749970687069
 1  2.19890063346335 -5.09353632973297 -0.56697014661466
 1  3.95933805610561 -4.05989527132713  1.98099310691069
 1  2.83777876457646 -3.42653827492749 -1.54556709770977
 1  3.84188880218022 -2.07114067336734 -1.62867533803380
 1  4.49823199719972 -3.78698242744274 -2.15064399029903
 1  4.87411745264527 -1.19167559155916  0.49248113161316
 1  5.27118564586459 -2.42351398379838  1.74407928822882
 1  6.71458898559856 -3.67482067416742 -0.11724384038404
 1  6.44109426982698 -2.50325793479348 -1.17490808630863
 1  7.21243017431743 -0.74827815291529  0.46935418091809
 1  7.82207431033103 -2.37558414151415  1.64452883818382
 1  9.08448255755576 -1.70855913111311 -1.05897923602360
 1  9.04584910361036 -4.20187895929593 -0.75254904730473
 1  10.53440278107811 -3.58232243434344 -0.70412052555256
 1  9.71476053745375 -3.76804789628963  1.08207865056506
 1  9.65368451905191 -0.19733400720072  0.75162052585259
 1  10.23012310981098 -1.45845237913791  1.63360290029003
 1  11.96381152245224 -1.80897092899290 -0.34010838403840
 1  11.05159124582458 -0.67614051895189 -1.36900823442344
 1  11.46835786928693  1.22262669186919  0.04312475727573
 1  12.52855767906791  0.17055824722472  1.12821110131013
 1  13.24648144884488  0.60593502580258 -1.75229746844684
 1  14.41525086338634 -0.83542175487549  0.65015069506951
 1  14.09250482148215 -1.66710572687269 -0.63493981548155
 1  15.56992798119812 -0.31983518171817 -0.76772366486649
 1  13.53707190139014  2.82109672877288 -0.28152994069407
 1  14.73363006330633  1.65733602280228  0.97628484238424
 1  16.13075473127313  1.32420103280328 -0.90443693439344
 1  15.27645322872287  2.12622653545355 -2.22045342504250
 1  15.28257966256626  4.36699207720772 -0.89864186228623
 1  16.18756152625263  3.51816845824582  0.38911881228123
 1  18.11461514291429  3.19316080728073 -1.17626670627063
 1  16.68482920332033  5.09182571147115 -2.86172853265327
 1  18.15522144564456  4.36723623692369 -3.19079368446845
 1  16.72339253945395  3.25608667866787 -3.24046208080808
 1  18.12612866006600  4.87584880238024  0.29804146834683
 1  19.16560408270827  5.32591674387439 -0.99740665506551
 1  17.60638218911891  6.33754325742574 -0.86675073637364
 1 -5.28723402480248 -7.91997143024302  0.16598306060606
 1 -6.33849828012801 -6.96016310291029  1.11435494299430
 1 -4.82097026562656 -6.96105768136814  1.35785024162416
 8 -7.51688928052805  6.83750025082508 -0.54206199019902
 1 -9.03037133423342  6.18603424832483 -1.81097678047805

