%nproc=4
%Mem=4GB
# td=(NStates=1) iop(3/107=0140000000,3/108=0140000000) iop(3/107=0140000000,3/108=0140000000) CAM-B3LYP/6-31G(d,p) 

TD

0 1
12 -5.67621912851285  1.21633650795080  0.27211581678168
 6 -5.02966335353535 -2.11500996429643 -0.32856972377238
 6 -3.30851964106411  1.26752703750375  2.61698707200720
 6 -6.20772956865687  4.55684894909491  0.70319052785279
 6 -8.08205397249725  1.15653650435044 -2.29634730823082
 7 -4.31642589588959 -0.24565275707571  1.05431677047705
 6 -4.35219874737474 -1.53057675927593  0.72360471007101
 6 -3.19045216971697 -2.31723502630263  1.44297866156616
 6 -2.81458462946295 -1.31047393829383  2.52553911001100
 6 -3.45749317671767  0.04257162946295  2.00615520072007
 6 -3.53989702910291 -1.69747318871887  3.93605630503050
 6 -1.88663385658566 -2.62342975227523  0.61875718121812
 6 -0.92123376687669 -3.48531611221122  1.37657124512451
 6  0.25039013951395 -3.90246408710871  0.60284847954795
 8  0.37783784808481 -3.43740105370537 -0.49890612481248
 8  1.08822566826683 -4.74077369466947  1.20365497279728
 7 -4.91632244854485  2.58694807170717  1.47483771547155
 6 -3.93834592439244  2.46043346504650  2.32518312161216
 6 -3.65047455115512  3.67980648284828  3.02740329652965
 6 -4.61187173987399  4.67811934023402  2.55805507680768
 6 -5.29052515671567  3.94740283548355  1.50178627092709
 6 -2.72775813891389  3.81535891169117  4.26537072647265
 6 -4.65208173877388  6.09138655915592  2.92960246504650
 8 -3.95961600960096  6.59673756175617  3.81457535743574
 7 -6.96390018991899  2.66268616441644 -0.64882653895390
 6 -6.99004171897190  3.97933755095510 -0.34178586728673
 6 -7.92943813021302  4.63350007480748 -1.23760787028703
 6 -8.52883233653365  3.66416334623462 -1.97560650505050
 6 -7.90987987848785  2.34920092889289 -1.64559050555056
 6 -8.33106609750975  6.04412432183218 -1.28955846464646
 6 -9.52685704900490  3.74852525072507 -3.24716934973497
 6 -8.62236369006901  3.85846399259926 -4.47413381738174
 7 -6.48685710471047 -0.18024304200420 -0.97760285228523
 6 -7.34448397799780 -0.06886295489549 -2.02470668136814
 6 -7.67215472267227 -1.32280398399840 -2.62796531913191
 6 -6.67819736853685 -2.26815638743874 -1.97739390509051
 6 -6.03048146354635 -1.41987555265527 -0.99559568996900
 6 -8.54656011381138 -1.63372349834984 -3.75502239843984
 6 -6.31692535963596 -3.49957554145415 -1.85027858295830
 8 -6.56507090259026 -4.56775447384738 -2.45093135823582
 6 -5.06661522362236 -3.50686873947395 -0.79436175597560
 6 -5.24998247564756 -4.54569001010101  0.17289096089609
 8 -5.75307107870787 -4.49920892899290  1.30787715111511
 8 -4.99116881508151 -5.79146034243424 -0.35521866646665
 6 -5.27927549174917 -6.95416727002700  0.42453428322832
 6  2.32343331653165 -5.02711383158316  0.40931488588859
 6  3.42838737373737 -4.22755291619162  0.88754665446545
 6  4.03323271347135 -3.40709357945795  0.07482111711171
 6  3.75161950085008 -3.14439938123812 -1.43200270477048
 6  5.22438886468647 -2.58629367696770  0.63878767756776
 6  6.53169804110411 -2.80693361856186 -0.01807033963396
 6  7.66913223682368 -1.89915927142714  0.57960365086509
 6  8.99287010831083 -2.11736657025703 -0.18781656415642
 6  9.70704708640864 -3.50435107550755  0.07545408770877
 6  9.95156573567357 -0.89386962436244  0.22487500300030
 6  11.32123942634263 -0.83384299119912 -0.42481124732473
 6  12.22286997559756  0.26881150865087  0.25391223882388
 6  13.51748420422042  0.49763463336334 -0.60876563976398
 6  14.42310060906091 -0.69854925752575 -0.44143829472947
 6  14.13370931053105  1.80283645524552 -0.22012126692669
 6  15.53786797719772  2.19480750895090 -0.83961895689569
 6  15.94702728712871  3.68429318211821 -0.55497611081108
 6  17.42803805290529  3.96017385898590 -1.13107704290429
 6  17.28305089478948  3.94270916261626 -2.64057628182818
 6  17.85953535963596  5.18048331363136 -0.50376983588359
 1 -2.59767549034904  1.24553882928293  3.46633710211021
 1 -6.50637861666167  5.64465984638464  0.89504849654966
 1 -8.81152155935593  0.99197950085009 -3.11093657245725
 1 -3.50038110291029 -3.34055937133713  1.86040410121012
 1 -1.71161828572857 -1.21502916451645  2.67114839093909
 1 -3.00088986808681 -2.38984214541454  4.33001654565457
 1 -3.39167996069607 -0.84173407780778  4.62039406920692
 1 -4.56731924362436 -1.71961104200420  3.80376432693269
 1 -2.42171748544855 -3.16713623092309 -0.21568219201920
 1 -1.15976380878088 -1.77394651095110  0.21979010061006
 1 -0.41535696919692 -2.88101939753975  2.13321754045405
 1 -1.65063978557856 -4.22157928912891  2.03817561556156
 1 -1.63563367716772  3.61203072747275  4.18750466016602
 1 -2.91755274537454  4.64553175917592  4.79321557925793
 1 -3.08127112211221  3.06950794829483  4.96843184918492
 1 -5.48765182908291  6.63599779417942  2.43172849424942
 1 -9.95240437393739  2.73755441254125 -3.30428368006801
 1 -10.18488928682868  4.57998184228423 -3.05950624132413
 1 -9.43788358815882  3.55870428442844 -5.53790899319932
 1 -8.44150365976598  5.14835458085809 -4.49213916891689
 1 -7.62794264326433  3.19890924972497 -4.54871479627963
 1 -8.32574016361636 -1.08566910981098 -4.65319631793179
 1 -8.70609159215922 -2.70847425252525 -3.94607724472447
 1 -9.46146622612261 -1.39819664306431 -3.33221012771277
 1 -4.24284164156416 -3.83832865946595 -1.33741702860286
 1  2.63644477747775 -6.22155009800980  0.64643059996000
 1  2.14376511991199 -5.14364134023402 -0.64728817841784
 1  3.80211233353335 -4.50802008380838  1.90991599919992
 1  2.60345533223322 -2.88702432353235 -1.60727326832683
 1  4.33365797909791 -2.25229878917892 -1.61658412891289
 1  4.15774794879488 -4.03043677287729 -2.03267219311931
 1  5.13632367326733 -1.56326275027503  0.50856273977398
 1  5.50428895619562 -2.74245587798780  1.64291917221722
 1  6.76865439213921 -3.78470166226623  0.42038992299230
 1  6.47986814721472 -2.88104571357136 -1.23930452595259
 1  7.50632956425643 -0.85346867196720  0.43011025652565
 1  7.73606570947095 -2.01760834393439  1.53427781308131
 1  8.90003411271127 -1.86102437763776 -1.22294563266327
 1  9.00825534423442 -4.35858462986299 -0.28538233063306
 1  10.44801414221422 -3.56781098319832 -0.61192130563056
 1  9.75197425882588 -3.64503559505951  1.19280972367237
 1  9.30316946754676  0.08375410161016  0.08992435623562
 1  10.16944704220422 -0.97662419631963  1.27072661266127
 1  11.87007214851485 -1.66363639553955 -0.35070944414442
 1  11.21631771847185 -0.64283718861886 -1.45825715931593
 1  11.73263429692969  1.37619204840484  0.46020646544654
 1  12.62703752705270  0.07713890529053  1.30053833403340
 1  13.18750555125512  0.65942037433743 -1.53652589128913
 1  14.84296363466347 -0.67598581128113  0.48988466846685
 1  13.81760733173317 -1.72521153745375 -0.66708302980298
 1  15.12182317071707 -0.78270146834683 -1.26056294879488
 1  13.31756995119512  2.69850446954695 -0.11055284298430
 1  14.46886358665867  1.58308859805981  0.79161637553755
 1  16.32844450025003  1.46091470417042 -0.47056354705471
 1  15.66014159755976  2.13021693449345 -2.03498487818782
 1  15.24939634423442  4.31034641264126 -0.73344534263426
 1  16.10426319641964  3.94253089448945  0.46117601800180
 1  18.10042372377238  3.10688217941794 -0.74899397899790
 1  16.84518523892389  4.98726525542554 -3.11400376017602
 1  18.28335425892589  4.09009852315232 -3.11081568666867
 1  16.91808200840084  2.97115818581858 -2.99602763736374
 1  18.19830587778778  4.95835705320532  0.46277794199420
 1  18.78191571387139  5.81038519071907 -1.09056597099710
 1  17.16006755765576  5.97847735083508 -0.70688474977498
 1 -5.21197649904990 -7.92391182428243 -0.00729426712671
 1 -6.35149958025803 -6.88454554115412  0.77447095459546
 1 -4.67824599319932 -6.98092966856686  1.33721817841784
 8 -7.82156974857486  6.88798529932993 -0.62647043104310
 1 -9.16165446254625  6.27392303720372 -1.91070675347535

