%nproc=4
%Mem=4GB
# td=(NStates=1) iop(3/107=0140000000,3/108=0140000000) iop(3/107=0140000000,3/108=0140000000) CAM-B3LYP/6-31G(d,p) 

TD

0 1
12 -5.67599910651065  1.25685055935594  0.13171177637764
 6 -4.98864925212521 -2.14043250655066 -0.34131099789979
 6 -3.38923771287129  1.24883516831683  2.73138851215122
 6 -6.24629342504250  4.51025428962896  0.70984119291929
 6 -8.02151791889189  1.17238808950895 -2.45512318581858
 7 -4.32278653195320 -0.26258445024502  1.13932527132713
 6 -4.22557608510851 -1.56939064066407  0.63990634023402
 6 -3.22042516701670 -2.23806710951095  1.44930929462946
 6 -3.00542371337134 -1.23038592949295  2.63325988208821
 6 -3.52162959035904  0.05245261756176  2.13819840504050
 6 -3.70036307570757 -1.68922236363636  3.96301900130013
 6 -1.92649784298430 -2.66394380368037  0.65459076457646
 6 -0.87103874737474 -3.51900948154815  1.43629721772177
 6  0.36416151665167 -3.71008484918492  0.64412260696070
 8  0.56534659895990 -3.20432774637464 -0.37538377257726
 8  1.09128597429743 -4.69791940924092  1.27249185648565
 7 -4.94338515481548  2.58676805370537  1.53546377807781
 6 -4.02652474227423  2.46439386108611  2.50614121742174
 6 -3.70512001570157  3.71716021822182  3.15216577277728
 6 -4.62797335003500  4.60434196249625  2.63381265256526
 6 -5.34226033023302  3.89751784698470  1.60792688498850
 6 -2.79268463156316  3.95531290709071  4.30233442284228
 6 -4.75512204280428  6.09171659215921  2.90616012081208
 8 -4.27941798979898  6.59314720272027  3.88867276717672
 7 -6.82237603750375  2.62600249604961 -0.76522817911791
 6 -6.93004571937194  3.92427204440444 -0.38391007970797
 6 -7.88963414981498  4.56187291209121 -1.22583669316932
 6 -8.38343779707971  3.61300823072307 -2.08612755715572
 6 -7.72430132063206  2.36968297709771 -1.76388233473347
 6 -8.53351634253425  5.95987589698970 -1.04363387218722
 6 -9.52758712201220  3.77773817201720 -3.16341097389739
 6 -8.97735918961896  4.04112225842584 -4.58472487648765
 7 -6.37838625762576 -0.07064208190819 -1.15406049804981
 6 -7.32904243384338 -0.00424649324933 -2.16065027572757
 6 -7.53101060826083 -1.33133483708371 -2.74809733233323
 6 -6.70684023282328 -2.23110268206821 -2.05736190189019
 6 -5.95702411781178 -1.41908547364736 -1.05914204460446
 6 -8.45850130793079 -1.69576970297030 -3.86281317751775
 6 -6.15948961606161 -3.58246383028303 -1.94506806190619
 8 -6.42590698619862 -4.51677937633763 -2.64669093419342
 6 -5.08977753985399 -3.56737479007901 -0.77811013081308
 6 -5.33647112451245 -4.59242468356836  0.18592226402640
 8 -5.68071384298430 -4.45094410251025  1.35595195859586
 8 -5.09211891009101 -5.81315251165116 -0.42494563916392
 6 -5.43099066326633 -7.01156300960096  0.37705953575358
 6  2.28450942414241 -5.08612973317332  0.59780373477348
 6  3.31779631463146 -4.10822098299830  1.01702960276028
 6  4.07627701790179 -3.29501237133713  0.14302793779378
 6  3.71493583248325 -3.19382432373237 -1.30985048954895
 6  5.25925235103510 -2.38468351595160  0.61569536833683
 6  6.61994686598660 -2.85693861906191  0.02162362976298
 6  7.71641696529653 -1.80669002450245  0.54009970047005
 6  9.05091591289129 -2.01302613621362 -0.14413219571957
 6  9.56885326702670 -3.44571521192119  0.12011855415542
 6  10.04040461956196 -0.97877811521152  0.29729224472447
 6  11.37804510691069 -0.97407701460146 -0.36716548274827
 6  12.27201489008901  0.20707533503350  0.16510335793579
 6  13.61993444924492  0.42385725562556 -0.57545230843084
 6  14.60365866486649 -0.75619502210221 -0.52318646954695
 6  14.29637557715771  1.81260743234323 -0.22757201200120
 6  15.54757894829483  2.10483851205121 -1.04351934693469
 6  16.11641422582258  3.39581433423342 -0.56985759895990
 6  17.40173542264226  3.85775361696170 -1.23027696289629
 6  17.26615920562056  3.94304919661966 -2.74516674087409
 6  17.90380978707871  5.15282054735474 -0.72346180508051
 1 -2.71512723552355  1.16143041844184  3.50607107550755
 1 -6.40013799259926  5.46322170257026  0.59319831153115
 1 -8.82070247744774  1.10238054095409 -3.19383486228623
 1 -3.76089715451545 -3.09510482588259  1.87983604440444
 1 -1.97968509240924 -0.98407606920692  2.97392866896690
 1 -3.12686246534653 -2.63688684988499  4.44998854285429
 1 -3.70239103180318 -0.94844474887489  4.59046107590759
 1 -4.77917042874287 -1.90612969386939  3.63514746524652
 1 -2.22190750445044 -3.18267778507851 -0.23398402220222
 1 -1.44391222362236 -1.62541165746575  0.25931405300530
 1 -0.70738617211721 -2.94319561516152  2.25440965966597
 1 -1.34081880348035 -4.54861199239924  1.93863566156616
 1 -1.69864997879788  3.53736326072607  4.05664157385739
 1 -2.89931092119212  4.79618682468247  4.66372262996300
 1 -3.17388038303830  3.28658965646565  5.08821382738274
 1 -5.35496856075608  6.59637383178318  2.15202052345235
 1 -10.19822895639564  2.94339499659966 -3.52708596029603
 1 -10.09264006190619  4.54915875997600 -3.15381567226723
 1 -9.95005480528053  3.97763617761776 -5.22449765206521
 1 -8.39703921332133  4.95214495989599 -4.73773372837284
 1 -8.22096194519452  3.16373573237324 -4.99303922872287
 1 -7.99339692929293 -1.17556809970997 -4.65524652295229
 1 -8.61990297329733 -2.79036244134413 -3.95501813881388
 1 -9.48778885838584 -1.55869269266927 -3.73738064476448
 1 -4.08060541794179 -3.87238206480648 -1.05038832573257
 1  2.47436856985699 -6.11109905290529  0.85070102700270
 1  2.18723946734673 -5.08671564766477 -0.59351280088009
 1  3.50047216951695 -4.02933221502150  2.14558956655666
 1  2.57595258195820 -3.42732835393539 -1.55336787778778
 1  4.06281089438944 -2.30228378767877 -1.61738420892089
 1  4.34507668166817 -3.89257298649865 -2.05470439633963
 1  4.89435947684768 -1.45017144114411  0.23840572407241
 1  5.27606613391339 -2.26764839723972  1.72408728902890
 1  6.94800232693269 -3.82471566366637  0.41801968596860
 1  6.24462462286229 -2.87844545354535 -1.02403299879988
 1  7.25755468676868 -0.87102042714271  0.28473571907191
 1  7.93520562346235 -1.74308089118912  1.66541092639264
 1  9.00995510481048 -1.76918519371937 -1.24277761586159
 1  8.91646616531653 -4.27859663106311 -0.12274606700670
 1  10.65465480628063 -3.53508771087109 -0.50468058155815
 1  10.03275233663366 -3.69008009950995  1.00768121082108
 1  9.66562571317132 -0.05992026582658  0.22533789758976
 1  10.16582668016802 -1.20460699459946  1.42836237623762
 1  12.09915505680568 -1.86627665956596 -0.21497587078708
 1  11.36626271297130 -0.84169707460746 -1.49460079367937
 1  11.48471950545055  1.00745517471747  0.21352179697970
 1  12.52542736603660 -0.03836264486449  1.28516679687969
 1  13.33278007870787  0.49374380668067 -1.69700193889389
 1  14.86299563786378 -0.83013122582258  0.64277995799580
 1  14.40300587158716 -1.74210322662266 -0.82194851635164
 1  15.46583757215722 -0.55371857005701 -0.90303719621962
 1  13.59326752095210  2.72173679277928 -0.37592938063806
 1  14.43698039833983  1.75051534073407  0.80883809770977
 1  16.16058771457146  1.14682329502950 -0.87289378007801
 1  15.42042762616262  2.06563047584759 -2.22860424012401
 1  15.44929633423342  4.36683206120612 -0.93407540564056
 1  16.28794156425643  3.53320996239624  0.40259015941594
 1  18.07264094549455  3.07583907510751 -1.19002808240824
 1  16.64010473087309  4.83345987488749 -2.78333069286929
 1  18.15843176667667  4.38894840814081 -3.17966257135714
 1  16.85477567776778  3.08430950095009 -3.23188122272227
 1  18.04844089128913  5.15520673817382  0.34197586178618
 1  18.89343686598660  5.38991314351435 -1.07456437083708
 1  17.19245079597960  6.04737424052405 -0.95384944624462
 1 -5.02118742014201 -7.75957539063906 -0.49466300400040
 1 -6.41109553985399 -7.05614270087009  0.41608511601160
 1 -4.91575974457446 -7.02967454305431  1.39671412801280
 8 -8.11323891549155  6.80595709650965 -0.26660444444444
 1 -9.58688698579858  5.95241088598860 -1.51176685948595

