%nproc=4
%Mem=2GB
# td=(NStates=1) iop(3/107=0140000000,3/108=0140000000) iop(3/107=0140000000,3/108=0140000000) CAM-B3LYP/6-31G(d,p) 

TD

0 1
12 -6.84455702780278  0.73647279137914  0.22249986948695
 6 -4.54401150765076 -2.00223864566457  0.44423470047005
 6 -4.30963277867787  2.77068870197020  0.96817969956996
 6 -8.92103480818082  3.18919294339434 -0.33357285898590
 6 -9.33065116271627 -1.81644467406741 -0.75163522222222
 7 -4.72800787268727  0.35385478317832  0.68505753785379
 6 -4.03158042364236 -0.93239294609461  0.71896245164516
 6 -2.53437685628563 -0.71650340954095  1.10431249354935
 6 -2.42780274607461  0.88218836763676  1.35134729722972
 6 -3.87258352125213  1.34217430263026  1.00150492519252
 6 -2.04194047974797  1.40700249614961  2.65623018581858
 6 -1.64248299669967 -1.31061362476248  0.06479780608061
 6 -0.04083220152015 -1.03968567516752  0.63380245374537
 6  0.77782886208621 -1.38897613451345 -0.62104027782778
 8  0.68340840894089 -0.95091770427043 -1.80220121032103
 8  1.75281556815682 -2.27648794739474 -0.30298522102210
 7 -6.48981072327233  2.63676404640464  0.49913366126613
 6 -5.51693225412541  3.34944358755876  0.76492278847885
 6 -5.71781599679968  4.94140382518252  0.61557642624262
 6 -7.10198091149115  4.97044313481348  0.25323190649065
 6 -7.57440914481448  3.60851966036604  0.10315514691469
 6 -4.82889781008101  6.00520795129513  1.04276194419442
 6 -7.94825638693869  6.15404232433243  0.28160768446845
 8 -7.45777969416942  7.24629624622462  0.49627748454845
 7 -8.76286984048405  0.67334819401940 -0.31430407950795
 6 -9.43261693409341  1.86728146344634 -0.48064911721172
 6 -10.87276390669067  1.54077394849485 -0.84587036823682
 6 -10.97497185468547  0.13131403580358 -0.89528038353835
 6 -9.71336299959996 -0.40018818201820 -0.70040211691169
 6 -12.00105688098810  2.55999219231923 -1.22039669046905
 6 -12.35777889838984 -0.51754531683168 -1.27133526722672
 6 -12.34016087818782 -0.69957212241224 -2.68393118781878
 7 -7.06492297519752 -1.41058361966197 -0.08855149964996
 6 -8.05991865346535 -2.19133913061306 -0.55628882688269
 6 -7.63158074317432 -3.51681900430043 -0.55213622372237
 6 -6.29662528372837 -3.56283544444444 -0.17729599019902
 6 -5.94562085078508 -2.11889070357036  0.00565674997500
 6 -8.43085160866087 -4.79421679947995 -0.86750956685669
 6 -5.20714691919192 -4.44745054315432  0.10250827652765
 8 -4.99647139583958 -5.58749928822882  0.06060656725673
 6 -3.90171389678968 -3.38704926412641  0.44998964616462
 6 -3.36501001190119 -3.76833300880088  1.90007972097210
 8 -3.95513075317532 -4.07690442524252  2.89549821962196
 8 -1.79928160306031 -3.78464476977698  1.56241618081808
 6 -0.98536705880588 -4.28945403550355  2.60803522872287
 6  2.96672856565657 -2.36247142404240 -1.25443668776878
 6  3.95435920332033 -1.29314631573157 -0.87346287858786
 6  5.00959171457146 -1.18466533793379 -1.68623482508251
 6  5.13546753055306 -1.60062319701970 -3.08574555675568
 6  6.11955578017802 -0.19529718261826 -1.26513307180718
 6  7.42596129012901 -0.73915969806981 -0.87734447174717
 6  8.54256681698170  0.28254388898890 -0.35502398289829
 6  9.77667075647565 -0.41617853815382  0.18631032533253
 6  9.53266078237824 -1.25197401210121  1.43146751555155
 6  10.95494782478248  0.67881273547355  0.27559239763976
 6  12.32375764626463 -0.00291898469847  0.15881419261926
 6  13.50549209180918  1.05515278997900  0.40883378177818
 6  14.94094042924293  0.49188246634663  0.49430409250925
 6  15.11801678977898 -0.21958423892389  1.82857278127813
 6  15.92943257165717  1.49615451745175  0.16150935623562
 6  17.33875335343534  0.82459768416842 -0.08211508540854
 6  18.38364791219122  1.85247243844384 -0.34005415221522
 6  19.73984618571857  1.24639313411341 -0.56528661236124
 6  19.99181898319832  0.44344977527753 -1.90924671587159
 6  20.98187535643564  2.36714813281328 -0.75364045994599
 1 -3.49346998529853  3.50742199319932  1.11761116281628
 1 -9.58878286078608  4.18079716481648 -0.69535316921692
 1 -10.22147463906391 -2.71463186248625 -1.03714654055406
 1 -2.27686020282028 -1.34103172097210  2.08873892219222
 1 -1.50758009660966  1.35072554875488  0.55955240864086
 1 -1.27815919961996  0.87104541894189  3.14747545864586
 1 -1.79594776867687  2.49573815021502  2.97791390919092
 1 -2.88958129062906  1.21383926922692  3.52708857795780
 1 -1.95809482978298 -2.33584485748575 -0.27942572937294
 1 -2.01347651665166 -0.70558203110311 -1.08563835463546
 1  0.26247424572457 -0.04269570287029  0.97597346254626
 1  0.36964324452445 -1.95345167896790  1.34477470957096
 1 -3.76891142154215  5.33593142104210  0.65350030773077
 1 -4.86835711631163  7.03762643854385  0.86079298539854
 1 -4.49455048324833  6.04353331433143  2.16906467876788
 1 -9.14909792389239  6.12060716991699  0.25252887708771
 1 -12.66800635423542 -1.15995686318632 -0.64723915111511
 1 -13.00931714671467  0.20110651045105 -0.90864850125013
 1 -13.18882670577058 -1.48247036243624 -2.88494561166117
 1 -12.47481444524452  0.04491191269127 -3.36641881138114
 1 -11.44956178057806 -1.32393571057106 -3.25368197559756
 1 -9.33550273357336 -4.53529008460846 -1.55925815381538
 1 -7.46382159675968 -5.53865387798780 -1.03817346924692
 1 -8.88378565856586 -5.32739470067007  0.19327393689369
 1 -3.06206578797880 -3.36309003390339 -0.29965827262726
 1  3.39777139253925 -3.51009828362836 -1.32587830493049
 1  2.43361765056506 -2.21565748074807 -2.01726196149615
 1  3.89315664336434 -1.09222197059706  0.23199680128013
 1  4.15731878887889 -1.35971944444444 -3.73311342634263
 1  6.11804538293829 -1.07463613901390 -3.99189041294129
 1  5.25781960936094 -2.96350896519652 -2.83716790059006
 1  6.13489391129113  0.53033837123712 -2.00984360156016
 1  5.45649075847585  0.39540508830883 -0.46442070547055
 1  7.35556673557356 -1.55263346044604 -0.47674595299530
 1  7.88377377577758 -1.27611640194019 -1.81890136603660
 1  8.73412554395439  1.05640623542354 -1.31179396469647
 1  7.94191268936894  1.17980316851685  0.51814752315232
 1  9.96538898599860 -1.46038348204821 -0.68385554315432
 1  8.60005224952495 -1.78687750345034  1.22513087388739
 1  10.19047511691169 -2.09169305050505  1.88842073347335
 1  9.16008922052205 -0.76820804320432  2.49150045514551
 1  10.97034067186719  1.29660242014201 -0.17775494709471
 1  10.82129187578758  0.99636851245125  1.38730261056106
 1  12.51331887408741 -0.97655009450945  0.90191387468747
 1  12.60071222522252 -0.42489070967097 -0.79375237273727
 1  13.20691556155616  1.84132367736774 -0.21601050565056
 1  13.58017006180618  1.08715296659666  1.45663145254526
 1  15.08388981478148 -0.27326484248425 -0.39653784498450
 1  14.91797169706971  0.35259565506551  2.57441021402140
 1  14.23084035753575 -0.52097976987699  1.95892339043904
 1  15.98641567466747 -0.87316089918992  2.13198967666767
 1  15.40136127102710  2.13797379077908 -0.52456243094310
 1  16.08906293889389  2.18751828732873  1.06019434263426
 1  17.54185550065007 -0.05553238263826  0.94661484818482
 1  16.92531005520552 -0.08912074287429 -0.78715009240924
 1  18.01622662976298  2.52824937273727 -1.08768175647565
 1  18.66452644874488  2.30135404230423  0.75161183168317
 1  20.29725228642864  0.93786663286329  0.43544689548955
 1  19.47562588058806  1.18365341494149 -2.91188331353135
 1  21.17087137713771  0.22387058525853 -2.08709284268427
 1  19.65462818981898 -0.55571328972897 -1.53689176387639
 1  20.75673245184518  2.62128170727073  0.30386113971397
 1  21.95534327462746  2.00992757545754 -0.59718243324332
 1  20.78429508240824  3.39677716491649 -1.48253304960496
 1  0.26641101600160 -5.09249199859986  2.08504685268527
 1 -1.80545022602260 -4.95094236793679  3.12650328692869
 1 -0.88852286558656 -3.24279275637564  3.38157231043104
 8 -11.74485285958596  3.86662146134613 -1.24618643234323
 1 -13.05320583208321  2.47252849294929 -1.17225783078308

