%nproc=4
%Mem=4GB
# td=(NStates=1) iop(3/107=0140000000,3/108=0140000000) iop(3/107=0140000000,3/108=0140000000) CAM-B3LYP/6-31G(d,p) 

TD

0 1
12 -5.59908141474147  1.25468034233423  0.08647725292529
 6 -4.96862724992499 -2.02926138943894 -0.45925279207921
 6 -3.37981677077708  1.18491877667767  2.78742411571157
 6 -6.16053484918492  4.50279354355436  0.61650185898590
 6 -7.95479124622462  1.13652450315031 -2.43205087858786
 7 -4.37779203250325 -0.20907909970997  1.02037337613761
 6 -4.27656118361836 -1.54455815741574  0.60143249284928
 6 -3.20056318081808 -2.28907221002100  1.38170253395340
 6 -2.95819899089909 -1.31479437033703  2.66542309840984
 6 -3.56091351875188 -0.03382601030103  2.21696628182818
 6 -3.48498153755376 -1.84634807620762  3.97842054145415
 6 -2.01471666486649 -2.67052446174617  0.64363966946695
 6 -1.02048369186919 -3.56273385398540  1.49968355635564
 6  0.27677277777778 -3.90474431513151  0.69696789148915
 8  0.40380044434443 -3.52770008360836 -0.45668190239024
 8  1.04721156685669 -4.74341395869587  1.32609721702170
 7 -4.93602441874187  2.59182855975598  1.51568179987999
 6 -4.06891898169817  2.44848226992699  2.48871947524752
 6 -3.80824032773277  3.63029153135314  3.15902645884588
 6 -4.59224977767777  4.65113664196420  2.55981525282528
 6 -5.39068517271727  3.87495559075908  1.59039513181318
 6 -2.96771213431343  3.91545892169217  4.43485767516752
 6 -4.75794232483248  6.02638005850585  3.05243474827483
 8 -4.25631567956796  6.60024791279128  3.94751865176518
 7 -6.87762156205621  2.65481537733773 -0.81399305560556
 6 -6.95343805860586  3.90509012621262 -0.40105179387939
 6 -7.95057024342434  4.57156388118812 -1.09019312881288
 6 -8.47690714401440  3.58337526742674 -2.15446439083908
 6 -7.79570846134613  2.41913792259226 -1.75256120262026
 6 -8.43848683958396  5.91558146754676 -1.10057956675668
 6 -9.48625298859886  3.88374877307731 -3.06919155195520
 6 -8.85519697339734  4.04452259845985 -4.53320972497250
 7 -6.35438385738574 -0.14345936363636 -1.14223931593159
 6 -7.33325285488549  0.02936686808681 -2.05336954765477
 6 -7.65659316651665 -1.34280598419842 -2.60089261186119
 6 -6.70999054785479 -2.20967053885389 -2.06282244794479
 6 -5.99726814221422 -1.35471903700370 -1.17651378177818
 6 -8.61090654845484 -1.70985111111111 -3.83664056025603
 6 -6.18350201730173 -3.58966455035504 -2.05034858995900
 8 -6.60984538003800 -4.55711340974097 -2.69381564666467
 6 -4.94090265236524 -3.43030108270827 -0.95628794859486
 6 -5.16837431483148 -4.49519496059606  0.13382705450545
 8 -5.54798056965697 -4.28293730183018  1.29288565196520
 8 -4.82745244344434 -5.77600879727973 -0.37318046264626
 6 -5.13473103730373 -6.83700555385539  0.57540937073707
 6  2.24629560276028 -4.99516063626363  0.65464941934193
 6  3.37172170717072 -4.06461662256226  0.99475737553755
 6  4.13459284948495 -3.33375624572457  0.10353398839884
 6  3.87667200610061 -3.25416035733573 -1.40931043554355
 6  5.14801122692269 -2.38822386998700  0.57040083888389
 6  6.47978284958496 -2.73345627082708  0.01636310371037
 6  7.60427575117512 -1.86450580608061  0.48854454495450
 6  8.97064788608861 -2.00130496409641 -0.13324110661066
 6  9.60090647234724 -3.29418005840584  0.13512005430543
 6  9.98869944904490 -0.85621585898590  0.42149466496650
 6  11.28006530893089 -0.78602820972097 -0.31204997119712
 6  12.27551524012401  0.35437006450645  0.23982082968297
 6  13.61108356415641  0.36134100400040 -0.49181394459446
 6  14.45582388138814 -0.84333373597360 -0.29345349624962
 6  14.25060099969997  1.66494266586659 -0.26910616541654
 6  15.60668485888589  2.01398942714271 -1.01793678867887
 6  16.12752533693369  3.45688044084408 -0.66160677387739
 6  17.45090033913391  3.90476831843184 -1.31694562976298
 6  17.17343993369337  3.85563045474547 -2.86397862206221
 6  17.90766017211721  5.23286855215522 -0.76882634153415
 1 -2.77329305210521  1.31420569596960  3.38753922232223
 1 -6.43088106690669  5.58692407280728  0.71580057175717
 1 -8.95125553275327  1.06218652155216 -3.05985146394639
 1 -3.54509557435744 -3.25423073847385  1.74390245104510
 1 -1.88040516441644 -1.27669533113311  2.67658893499350
 1 -2.93268304740474 -2.70462362356236  4.20024356835684
 1 -3.21643243594359 -1.15010491489149  4.83914594439444
 1 -4.50961347304731 -1.86377545844584  4.09599354985499
 1 -2.23201851555155 -3.26104562186219 -0.18799942374237
 1 -1.27802563496350 -1.78840795709571  0.34038215981598
 1 -1.01294672817282 -3.09473076867687  2.48149236793679
 1 -1.61004572617262 -4.51495862706271  1.46324812281228
 1 -1.91606171997200  3.41825134953495  4.53686959665967
 1 -2.90063105320532  4.93980118611861  4.61230748844885
 1 -3.41494448944894  3.53368436593659  5.44629963596360
 1 -5.42408547244724  6.45256945134514  2.23291861326133
 1 -10.27987712121212  2.98555921302130 -3.04476772847285
 1 -10.02455325322532  4.85661950605061 -2.70101039173917
 1 -9.55646544634464  4.34351276527653 -5.35132033433343
 1 -8.02655216461646  4.77598734413441 -4.42671262626263
 1 -8.39815966496650  3.11266062486249 -4.89679960476048
 1 -8.01168875847585 -1.26987753065307 -4.69321031933193
 1 -8.19092007500750 -2.76882028712871 -3.84882751975197
 1 -9.71283136263626 -1.48551537493749 -3.68816572327233
 1 -4.14397175457546 -3.78057288388839 -1.64092737963796
 1  2.63562469546955 -6.14951289428943  0.91390734763476
 1  2.17729847324733 -5.03950092619262 -0.41449489908991
 1  3.79620174247425 -4.00247952975298  1.96975198279828
 1  2.74699968666867 -3.41665728682868 -1.54891743274327
 1  4.05563017631763 -2.28900245954595 -1.67888035853585
 1  4.56360853485349 -3.75422915211521 -1.98280720662066
 1  5.00307034793479 -1.31558798279828  0.17255913941394
 1  5.38412693999400 -2.43085471787179  1.65758063836384
 1  6.88402592929293 -3.76599979207921  0.32002988698870
 1  6.28679884028403 -2.55547315631563 -1.10853144864486
 1  7.27850678197820 -0.79144246934693  0.54193143864386
 1  7.67810991389139 -2.13730031313131  1.48482286758676
 1  8.91057516681668 -1.74867314251425 -1.35329866796680
 1  8.92293681238124 -4.15816458785878 -0.15593938633863
 1  10.67199654045405 -3.52675687778778 -0.41090120362036
 1  9.92245130653065 -3.61229232073207  1.20489093179318
 1  9.29444859545955 -0.00309458325833  0.33483884768477
 1  10.13977407490749 -1.01100763466347  1.48956849684968
 1  11.91671681298130 -1.66767679957996 -0.40292466566657
 1  11.22202828952895 -0.41296420132013 -1.43377471107111
 1  11.83592462596260  1.25547997719772  0.05977642244224
 1  12.73355817911791  0.12732392379238  1.33396167636764
 1  13.31374817551755  0.43404783708371 -1.54623686238624
 1  14.87195653395339 -0.82888110081008  0.82534821482148
 1  13.89333490449045 -1.66188520482048 -0.26827314881488
 1  15.37368835723572 -0.88875207340734 -0.90745763826383
 1  13.48778697289729  2.30105472457246 -0.51743353105311
 1  14.69883658395840  1.85696598579858  0.80019723362336
 1  16.37357901370137  1.33440205290529 -0.80223671437144
 1  15.43398898229823  2.05013892669267 -2.07860924062406
 1  15.26882828742874  4.03270864886489 -0.79578157625763
 1  16.48237100720072  3.42549919131913  0.57584748514851
 1  18.14147782918292  3.27206869806981 -1.09813889348935
 1  16.47317803820382  4.63345987488749 -3.05529788958896
 1  18.15736165966597  3.96193570687069 -3.26912151725173
 1  16.94025422562256  2.91153222322232 -3.26160419501950
 1  17.83430947814781  5.21972318981898  0.48382004620462
 1  18.99232675497550  5.47426157835783 -1.22330924532453
 1  17.19094064496450  5.90213971707171 -0.98627268856886
 1 -4.72045734713471 -7.65961539463946  0.05814227652765
 1 -6.06151058135814 -7.15101218781878  0.70455396289629
 1 -4.74162233083308 -6.57374895049505  1.72714717131713
 8 -7.87087467906791  6.78884538533853 -0.44165194919492
 1 -9.53232152925293  6.18955460036004 -1.54556023882388

