%nproc=4
%Mem=2GB
# td=(NStates=1) iop(3/107=0140000000,3/108=0140000000) iop(3/107=0140000000,3/108=0140000000) CAM-B3LYP/6-31G(d,p) 

TD

0 1
12 -6.78780135223522  0.53656280038004  0.13558117761776
 6 -4.52903000950095 -1.89931835363536  0.31281155815582
 6 -4.22584439983998  2.83853548664866  0.74112699429943
 6 -9.12414511921192  3.26171019511951 -0.19342884458446
 6 -9.29187728532853 -1.65337836743674 -0.57354741344134
 7 -4.56396146804680  0.46393579127913  0.47652668476848
 6 -3.91453871947195 -0.76521622842284  0.67917847324732
 6 -2.35035845444544 -0.34583634283428  1.01217327962796
 6 -2.50773073887389  1.17361751055106  1.36769893239324
 6 -3.82448871177118  1.49977006220622  0.95050982568257
 6 -2.19584587028703  1.39181097699770  2.80433499629963
 6 -1.54542329072907 -0.84603716711671 -0.08359703340334
 6 -0.01818993729373 -0.82659436603660  0.28919799329933
 6  0.85842692189219 -1.11692892979298 -0.79515768956896
 8  0.64520458855886 -0.66820943344334 -1.97849884008401
 8  1.93135342194219 -1.90644094269427 -0.46135105760576
 7 -6.70436217841784  2.64283465346535  0.22601634953495
 6 -5.57420798169817  3.31671031423142  0.43090938713871
 6 -6.02407662286229  4.80979066386639  0.48123299189919
 6 -7.36823753715372  4.92279837033703  0.26667325062506
 6 -7.84330603450345  3.52370117851785  0.17771260266027
 6 -5.16120104040404  5.88184561506151  0.67600526852685
 6 -8.28652021332133  5.96468338843884  0.23777330103010
 8 -7.71697561376138  7.25390700730073  0.13753160996100
 7 -8.86147970147015  0.60026088528853 -0.17611026012601
 6 -9.51377504990499  1.77125186048605 -0.16963801610161
 6 -10.97963459375938  1.47477734883488 -0.59794557575758
 6 -10.99804416191619  0.12860376477648 -0.59941079657966
 6 -9.73628529182918 -0.37688585178518 -0.35562763946395
 6 -12.07861463676368  2.45397159025903 -0.80528517931793
 6 -12.18971209170917 -0.76326988928893 -0.88943707740774
 6 -12.55011187328733 -1.46356852205221 -2.42550534523452
 7 -7.02222870577058 -1.42101466276628  0.19125648114811
 6 -8.08273093469347 -2.31541153785379 -0.17104030203020
 6 -7.56459404450445 -3.69786710911091 -0.36966797689769
 6 -6.28440406160616 -3.66355551645165  0.00111185058506
 6 -5.92208849754975 -2.22569138363836  0.14299048334833
 6 -8.30430895439544 -4.81157853565357 -0.61665448134813
 6 -5.14467067156716 -4.39737553565357  0.10998902460246
 8 -4.92958470717072 -5.57890842914291 -0.14346383978398
 6 -4.04217794319432 -3.35029558875888  0.32303695089509
 6 -3.23876738763876 -3.75119129462946  1.68147786078608
 8 -3.78319355945595 -3.86539327412741  2.74758342814281
 8 -1.86166784168417 -3.83841014631463  1.44657459665967
 6 -0.80822934503450 -4.22523761386139  2.78891331653165
 6  2.98306019881988 -1.93701887878788 -1.50115135923592
 6  4.10348411581158 -0.97547454855486 -1.07406293859386
 6  5.09731048644864 -0.81438831023102 -2.01333753535354
 6  5.15168915271527 -1.53167630233023 -3.35719270147015
 6  6.38803262786279  0.04346669376938 -1.63456001450145
 6  7.61158985298530 -0.59133491559156 -1.03467020432043
 6  8.56525908620862  0.29334496909691 -0.60860934143414
 6  9.82021511091109 -0.37339425972597 -0.22098040374037
 6  9.48307582388239 -1.02663147784778  1.11867623642364
 6  10.96188851885189  0.64748960316032 -0.20531569316932
 6  12.29326459695970 -0.07378607140714  0.02120043124312
 6  13.46378792139214  0.89724699939994  0.18580147854785
 6  14.89814614981498  0.24645792389239  0.50171483358336
 6  14.72940792889289 -0.37199948044804  2.08034795879588
 6  16.07350697909791  1.21797669966997  0.32322552785279
 6  17.59554903300330  0.60329555395540  0.24618774487449
 6  18.59921946934693  1.67396458765877  0.06356620982098
 6  19.94581678277828  0.95575407020702 -0.18353843754375
 6  20.02045184648465  0.01130656095610 -1.40248603980398
 6  21.09256642554255  1.92147356535654  0.00730563466347
 1 -3.60822146044604  3.47548879987999  1.02748214991499
 1 -10.00847482998300  4.10100918601860 -0.60779441334133
 1 -10.29448193979398 -2.28553895319532 -0.84674750065006
 1 -2.32432494929493 -0.98867648544855  1.89662971127113
 1 -1.92333167176718  1.41197167336734  0.52906936033603
 1 -1.21954333803380  1.07032534693469  2.84035474657466
 1 -2.21927010091009  2.63783235963596  2.96301241904190
 1 -2.86409874237424  0.77274515981598  3.58922479157916
 1 -1.80868988928893 -1.73949522252225 -0.52572035883588
 1 -1.83552872187219 -0.29375084798480 -0.97419721052105
 1  0.17159515781578  0.17721628832883  0.90969683488349
 1  0.21442772297230 -1.52447878167817  1.24561479357936
 1 -4.04729926032603  5.84477230513051  0.53800875857586
 1 -5.13143342394239  7.09612228812881 -0.30049314321432
 1 -5.16830785898590  6.34341330233023  1.92677044934493
 1 -9.56901991609161  5.59566467566757  0.13611723592359
 1 -12.24376392999300 -1.74708557605761 -0.11852627982798
 1 -12.92426864186419 -0.00724432463246 -0.77230486688669
 1 -13.20071789488949 -2.29835195059506 -2.84254137123712
 1 -12.19316628042804 -0.50292287078708 -3.23017518701870
 1 -11.85001182558256 -2.10456377337734 -2.76698330573057
 1 -9.53751293459346 -4.42210876647665 -1.36966919491949
 1 -7.76636185078508 -5.66279629222922 -1.45247489938994
 1 -8.57390467046705 -5.35501746294629  0.88280288978898
 1 -3.35997557895790 -3.12370609550955 -0.61270957775778
 1  3.22040365576558 -2.98801607540754 -1.14994071117112
 1  2.58473276207621 -1.30774668966897 -2.57967820312031
 1  3.83960128782878 -0.67981072947295 -0.00212661106111
 1  4.27109016601660 -1.27983145564556 -4.04094420942094
 1  6.09496307470747 -1.37515619101910 -3.82283350725073
 1  4.80704453185319 -2.43921653595360 -3.63352753655366
 1  6.49678009990999  0.67785312271227 -2.61149376657666
 1  6.06677178657866  1.11761730953095 -0.59761402480248
 1  7.17863904280428 -1.70313851095109 -0.27655593399340
 1  8.33668906730673 -1.39599839013901 -1.81035051095109
 1  8.67533966536654  1.02993358815882 -1.40189297459746
 1  8.31432993109311  0.82312750095009  0.34584029242924
 1  10.08996144324432 -1.16348379207921 -0.94279143674367
 1  9.03335557985799 -1.77982679837984  0.80230859165917
 1  10.62381845124512 -1.25729961116112  1.69040093149315
 1  8.97055026662666 -0.33850507290729  1.76296760186019
 1  10.84246788458846  1.57413017291729 -0.88650582218222
 1  10.72573231983198  1.13839271487149  0.79622350265027
 1  12.21177872007201 -0.52321476097610  1.11303498679868
 1  12.69519167316732 -0.58478669926993 -0.73859685718572
 1  13.35884075407541  1.71114065906591 -0.67215612021202
 1  13.34169621442144  1.41610586188619  0.80909669906991
 1  15.03263468926893 -0.96609412541254 -0.30312850405040
 1  14.26470637053705  0.35734613011301  2.95697847084709
 1  13.51093836733673 -0.95969364126413  2.01401889999000
 1  15.55220225332533 -1.24754833793379  2.53672014971497
 1  15.85752688758876  1.75413540694069 -0.61241121582158
 1  15.82467650025002  1.89543907940794  1.21775009820982
 1  17.97495881098110 -0.14080090949095  1.37323751045105
 1  17.48000552475247 -0.33432526332633 -0.69062043944394
 1  18.22466747384739  2.13570011781178 -0.97335032333233
 1  18.83179317541754  2.54817872477248  0.93365003550355
 1  20.03861642284228  0.31649449564957  0.71228457925793
 1  19.74462278027802  0.39819486908691 -2.42717484268427
 1  21.12327661766177 -0.16344814661466 -1.29887402080208
 1  19.64525725272527 -0.96869458785879 -1.11578965366537
 1  21.43503028162816  2.20431001010101  0.96469722332233
 1  21.97023476377638  1.12151873457346 -0.41887460246025
 1  20.84653130603060  2.78068555575558 -0.23686848314831
 1  0.42109648454845 -4.21120386978698  2.33307165516552
 1 -1.01006068706871 -5.49711698539854  3.29574021062106
 1 -1.28989300260026 -3.19256773387339  3.59775392859286
 8 -11.90209858415842  3.73839863906391 -0.84818663236324
 1 -12.92989350085009  1.82996423652365 -0.54275488048805

