%nproc=4
%Mem=4GB
# td=(NStates=1) iop(3/107=0140000000,3/108=0140000000) iop(3/107=0140000000,3/108=0140000000) CAM-B3LYP/6-31G(d,p) 

TD

0 1
12 -5.61979348594859  1.23561843614361  0.18669727492749
 6 -5.04621500870087 -2.10203866716672 -0.38091495829583
 6 -3.41987077617762  1.07528781358136  2.74708008130813
 6 -6.38158695439544  4.51139440364036  0.73295350415041
 6 -7.96385215231523  1.25402625332533 -2.40773844734473
 7 -4.48750300360036 -0.33453164496450  1.09200053885389
 6 -4.34398792629263 -1.64352805440544  0.70784313391339
 6 -3.26290941544154 -2.33360666346635  1.53478784248425
 6 -3.05792896389639 -1.36123901480148  2.78579513561356
 6 -3.68810623802380 -0.04998762646265  2.10891547674767
 6 -3.58918195759576 -1.89758319971997  4.08921162056206
 6 -1.96343153635364 -2.57497490679068  0.66687199269927
 6 -0.96650829432943 -3.44451203180318  1.40721430943094
 6  0.36021112161216 -3.73005684638464  0.65252344704470
 8  0.58484854915492 -3.26853416701670 -0.49338557275728
 8  1.16673351905191 -4.56481609890989  1.35274988228823
 7 -5.01028184448445  2.63657303420342  1.44309454115412
 6 -4.00915300510051  2.42707012871287  2.42466306960696
 6 -3.91040054375438  3.64307280948095  3.19667022322232
 6 -4.70005055775578  4.59834136243624  2.55481475277528
 6 -5.38735483968397  3.91722981818182  1.49184527682768
 6 -2.99409477257726  3.86600397619762  4.29078326772677
 6 -4.72287881848185  6.06022344284428  2.89377888268827
 8 -4.14885493349335  6.45048293629363  3.95692959285929
 7 -6.89792359225923  2.61474136993699 -0.73994565086509
 6 -7.07932064686469  3.90070968816882 -0.27627931663166
 6 -8.10714590099010  4.56750347514751 -1.13037714721472
 6 -8.42300175347535  3.60026695659566 -2.07518646304630
 6 -7.77184607510751  2.42629863866387 -1.77423336983698
 6 -8.49178216911691  5.94656456585659 -1.11518102690269
 6 -9.54045840914091  3.74895529372937 -3.16379101190119
 6 -8.90594204790479  4.15664381058106 -4.47434383838384
 7 -6.26396481548155 -0.11046606430643 -1.28849394139414
 6 -7.27640717031703  0.06646057745775 -2.22598680938094
 6 -7.54106161336134 -1.31427313091309 -2.76775929852985
 6 -6.69395894469447 -2.15184475627563 -2.09948611431143
 6 -5.91638005340534 -1.40037360246025 -1.06686281668167
 6 -8.40513597139714 -1.78879900590059 -3.89850674687469
 6 -6.18966263336334 -3.51289687358736 -2.00965452055206
 8 -6.54223861936194 -4.50486818521852 -2.69669593469347
 6 -5.09815837793779 -3.50058811141114 -0.85758807860786
 6 -5.41545902330233 -4.54233967506751  0.17414108590859
 8 -5.77587335893589 -4.29336834493449  1.32624898829883
 8 -5.13015271347135 -5.78717991439144 -0.34727787238724
 6 -5.39756732093209 -6.97768962226223  0.54976680648065
 6  2.42527350055005 -5.03341446164616  0.62621657605761
 6  3.48291282628263 -4.04801496239624  0.95929382918292
 6  4.09513890409041 -3.25072794289429  0.12672630763076
 6  3.73418775767577 -3.05111005230523 -1.36697620212021
 6  5.31329775557556 -2.47418246584658  0.63421722052205
 6  6.69881475277528 -2.78897182238224 -0.01125965856586
 6  7.79625494909491 -1.81313066856686  0.60714640514051
 6  9.11000182148215 -1.98170300390039 -0.05956373887389
 6  9.50535691739174 -3.50922156255626 -0.15277873557356
 6  10.06188676777678 -1.01981221862186  0.51998451395140
 6  11.46648395079508 -0.94033364026403 -0.39992875907591
 6  12.36577426602660  0.19423405090509  0.23238008560856
 6  13.68019047484749  0.27619248914891 -0.40598536173617
 6  14.69656795579558 -0.84383378597860 -0.15636978787879
 6  14.34835077467747  1.66279245084508 -0.05972522732273
 6  15.70092428282828  2.06780480868087 -0.81169616461646
 6  16.06353893829383  3.64800955375538 -0.64864547774777
 6  17.36890213931393  3.93881172277228 -1.46649058425843
 6  17.32426501620162  3.83507839953995 -2.96892911711171
 6  17.88335774187419  5.30365563086309 -0.98350780968097
 1 -2.72070779357936  1.05091936733673  3.48980944934493
 1 -6.51113909270927  5.70993637403740  0.56616560826083
 1 -8.68337874507451  1.23603390629063 -3.25902138093809
 1 -3.47594865966597 -3.36317163256326  1.81551961276127
 1 -2.01684880878088 -1.20692835443544  2.90944222032203
 1 -3.15302508160816 -2.84224738593859  4.36530007400740
 1 -3.40274106680668 -1.14911481588159  4.79546157595760
 1 -4.60047255895590 -2.27445652655266  4.06076002650265
 1 -2.19910522422242 -3.16728624592459 -0.34707533133313
 1 -1.56098393079308 -1.67311642794279  0.23105122672267
 1 -0.61389682318232 -3.28005930153015  2.49328354705471
 1 -1.34026874847485 -4.39961709290929  1.50275207320732
 1 -1.98187830163016  3.58664818921892  3.59715562526253
 1 -2.89003999409941  4.95816302230223  4.58039429712971
 1 -3.28518151315132  3.21626262376238  5.28064307030703
 1 -5.21075413931393  6.82368656305631  2.25278059945995
 1 -10.09880901440144  2.80531118821882 -3.35577882958296
 1 -10.50259105700570  4.44129797389739 -2.84694498519852
 1 -9.55859565936594  4.21070948494850 -5.34245944824482
 1 -8.32537204660466  5.27036678207821 -4.45485544054405
 1 -8.17932778177818  3.35651501030103 -4.71246117091709
 1 -8.53928151775178 -1.02456299919992 -4.64855585388539
 1 -8.23224420742074 -2.76603000810081 -4.25129776677668
 1 -9.50515059455946 -1.61322814621462 -3.74601150785079
 1 -4.25895325272527 -3.82348717531753 -1.35740902780278
 1  2.62870400340034 -6.01454939793979  1.05335129202920
 1  2.39246999039904 -5.02231920802080 -0.47899134873487
 1  3.83770589288929 -4.17128641044104  1.96873188078808
 1  2.70889587628763 -3.32332795389539 -1.68334087508751
 1  3.83647826112611 -1.99794335363536 -1.55951842234223
 1  4.35123729772977 -3.53588731793179 -2.08048697459746
 1  4.95023506440644 -1.41555797979798  0.31029291279128
 1  5.34435296259626 -2.58916054845485  1.80912579287929
 1  6.98446597329733 -3.80956414851485  0.22379026302630
 1  6.75783594399440 -2.57664527352735 -0.90426102160216
 1  7.39604853615362 -0.90351367646765  0.53511075657566
 1  8.01192329522952 -2.33603018611861  1.66825121042104
 1  9.01707581688169 -1.62804107930793 -1.10469380748075
 1  8.83781830053005 -4.08421719311931 -0.66117991039104
 1  10.55758509930993 -3.71105530763076 -0.53681379487949
 1  9.59372843424342 -4.00337142864286  0.87354779747975
 1  9.73688283888389  0.03171889808981  0.23088845264526
 1  10.30130022752275 -1.10542707660766  1.59317885788579
 1  11.86057119841984 -1.96172620452045 -0.40513488668867
 1  11.30259634633463 -0.76231913681368 -1.43240457405741
 1  11.95726676017602  1.25833026222622  0.05885633043304
 1  12.54696952025202 -0.01378018661866  1.17489576977698
 1  13.51877867856786  0.25237967026703 -1.55932817151715
 1  14.86534587288729 -0.99408762146215  0.92899857985799
 1  14.18586415741574 -1.67005602190219 -0.90724704620462
 1  15.67588857725773 -0.52953615181518 -0.64629152165217
 1  13.59489768396840  2.35478009710971 -0.25641742944294
 1  14.43912061236124  1.95387567676768  1.03330054395439
 1  16.50500215601560  1.36749536223622 -0.35246173687369
 1  15.60186576997700  1.95407932073207 -1.80969234893489
 1  15.22559396399640  4.12714809280928 -1.27594959305931
 1  16.34751752185219  3.78056469786979  0.50858075847585
 1  18.02124580598060  3.19549104030403 -1.26835591519152
 1  16.53967468786879  4.70153668256826 -3.36295865566557
 1  18.19133505700570  4.20918043134313 -3.39297390249025
 1  16.92823302350235  2.90218128812881 -3.39766780138014
 1  18.17842388958896  5.36020723822382  0.03561522572257
 1  18.71260878317832  5.67264141634163 -1.65038195259526
 1  17.13998554945494  6.04536403950395 -1.04888895019502
 1 -4.97737303870387 -7.79562899599960 -0.05912945064506
 1 -6.37876230653065 -6.93902098869887  0.91701520902090
 1 -4.61530969956996 -6.87352892849285  1.38345280188019
 8 -7.93518110971097  6.83994049484949 -0.42038982298230
 1 -9.16717501460146  6.31967761266127 -1.71231691449145

