%nproc=4
%Mem=2GB
# td=(NStates=1) iop(3/107=0140000000,3/108=0140000000) iop(3/107=0140000000,3/108=0140000000) CAM-B3LYP/6-31G(d,p) 

TD

0 1
12 -6.58743131523152  0.67874701880188  0.04082170167017
 6 -4.41839894639464 -2.14404282608261  0.34174445144514
 6 -4.03275509090909  2.69813144624462  1.04621750335034
 6 -8.75804850955095  3.27068109220922 -0.25774527622762
 6 -9.19767786538654 -1.52058508810881 -0.63879393809381
 7 -4.69240431233123  0.38141753945395  0.54296332843284
 6 -3.80103736933693 -0.89172887968797  0.65211576697670
 6 -2.37558097669767 -0.68984074327433  0.83982604490449
 6 -2.27582754855486  0.83860400920092  1.23494565706571
 6 -3.83415967886789  1.41260134533453  0.92005678037804
 6 -1.56188247394739  1.04946674257426  2.56608117091709
 6 -1.32904165256526 -1.30420298369837 -0.23205187888789
 6 -0.10122824112411 -1.57053876047605  0.27365643914391
 6  0.86767784698470 -1.80516775367537 -0.82770094389439
 8  0.86445651375138 -1.24611722422242 -1.89682067226723
 8  1.80126041264126 -2.76157645624563 -0.51095601810181
 7 -6.31450319251925  2.68137850785079  0.23031677957796
 6 -5.27198775967597  3.37327597079708  0.68000429662966
 6 -5.56084029922992  4.82671235603560  0.68542341094109
 6 -6.81193190659066  5.04473056355636  0.31490807410741
 6 -7.40691239513952  3.69675848424842  0.04849968136814
 6 -4.66129104940494  5.76842427292729  1.08830649864986
 6 -7.71725328662866  6.27699461956196  0.16355587928793
 8 -7.22893680988099  7.36429804640464  0.54088194499450
 7 -8.62417597109711  0.83644450365037 -0.33306595569557
 6 -9.27255092749275  1.98980371567157 -0.48658971127113
 6 -10.70604723502350  1.80650052115212 -0.87581336253625
 6 -10.81933629112911  0.41450235463546 -0.94900575607561
 6 -9.55750741404140 -0.16120428362836 -0.82727480418042
 6 -11.64083085838584  2.79969616271627 -1.04732938373837
 6 -12.07402052255225 -0.39788335063506 -1.33926205990599
 6 -11.87415427752775 -0.65544770997100 -2.86071886658666
 7 -6.82041852475248 -1.34907746904690 -0.01018366286629
 6 -8.05243790539054 -2.18074807150715 -0.29111230923092
 6 -7.57477506260626 -3.53671099349935 -0.39132014211421
 6 -6.32037765896590 -3.72421158205821 -0.08553681428143
 6 -5.81821811051105 -2.27590640514051  0.12615880018002
 6 -8.47391591509151 -4.62926030383038 -0.87692050795080
 6 -5.17341354585459 -4.59916571467147  0.16739476517652
 8 -5.02117386608661 -5.68040857915792 -0.05489498289829
 6 -3.96315004040404 -3.48230879007901  0.43505815301530
 6 -3.46485999689969 -3.79566574207421  1.90533024602460
 8 -4.10263550365037 -4.11875861066107  2.87575624542454
 8 -1.94054572947295 -3.52809911521152  2.01071101030103
 6 -1.22074059615962 -3.67451254135414  3.30015444064407
 6  2.91564345714571 -2.76264144104410 -1.39673091719172
 6  3.92384615201520 -1.75082208330833 -0.93642917521752
 6  4.99442019741974 -1.45843271467147 -1.74306050765077
 6  5.18328231203120 -1.98963209790979 -3.16732371457146
 6  5.94478830343034 -0.16624427732773 -1.38608516701670
 6  7.24417311131113 -0.95507128922892 -0.80431716901690
 6  8.08913147344734  0.16690232483248  0.05416693619362
 6  9.52475556495650 -0.56744366466647  0.42865455975598
 6  9.41749926622662 -1.17060587528753  1.93044741354135
 6  10.72113444344435  0.41540639483948  0.43387822622262
 6  11.96581185168517  0.02964427162716  0.32950126132613
 6  13.05363690629063  1.03047032173217  0.45746864526453
 6  14.48517485268527  0.53262654075408  0.38179284138414
 6  14.75889087718772 -0.32566484698470  1.61202112611261
 6  15.45046467486749  1.53503840584058  0.28087129242924
 6  16.91710118821882  1.02065729012901 -0.13492036593659
 6  17.90037958535854  2.20750794199420 -0.29755990279028
 6  19.28159036013601  1.73269176397640 -0.66243632733273
 6  19.34958475977598  0.98165359565957 -1.92748854005401
 6  20.36549371827183  2.94443586158616 -0.84776987288729
 1 -3.20423106140614  3.38661991299130  1.36199560126013
 1 -9.32539652215222  4.08772785788579 -0.47612124602460
 1 -9.87671016261626 -2.16110650995099 -0.96844967086709
 1 -2.37993050985098 -1.00105772357236  1.82122217051705
 1 -1.46997633623362  1.51887236343634  0.39292574597460
 1 -0.33474485818582  0.81023933833383  2.81350206130613
 1 -1.80529870377038  2.01550012641264  2.90114623242324
 1 -2.18585091759176  0.08136602190219  3.42324819391939
 1 -2.07760678097810 -2.31338261126113 -0.72339012581258
 1 -1.45082025102510 -0.36788826172617 -1.00938072887289
 1  0.60978897719772 -0.78894032733273  1.06110197539754
 1 -0.01318503830383 -2.55972230603060  1.05879611171117
 1 -3.72553708410841  5.51293912181218  0.24883984168417
 1 -5.22085236583658  6.78878155405541  1.24789169526953
 1 -4.55771679987999  5.45861482248225  1.99234700700070
 1 -8.65887890199020  6.03060817001700  0.01923554775478
 1 -11.84849440304030 -1.27952882038204 -0.85119954715472
 1 -13.01378759375937 -0.02479607980798 -1.32074971137114
 1 -12.61080890399040 -0.91995411081108 -2.96807392449245
 1 -11.52627959175918  0.13109053055305 -3.36353852335234
 1 -11.51917874227423 -1.72082539953995 -2.99427603500350
 1 -8.70282946624662 -4.60754731033103 -1.81449367736774
 1 -8.07333254785478 -5.77412742534253 -0.55917556945695
 1 -9.49229650965096 -4.60746270747075 -0.39354474497450
 1 -3.02774235563556 -3.61008473337334 -0.35369367616762
 1  3.37219883528353 -3.92991026482648 -1.39028474557456
 1  2.90975526432643 -2.41240715571557 -2.47055729102910
 1  4.04327165486549 -1.40249299769977 -0.00112651105110
 1  4.14264732173217 -1.97489096159616 -3.73482359735974
 1  6.16205978437844 -1.85370404580458 -3.65862708660866
 1  5.08408223562356 -3.16459907420742 -2.99708389218922
 1  5.97314773667367  0.54768010541054 -2.10746336353635
 1  5.65670077947795  0.31260680848085 -0.58452271567157
 1  7.18638981788179 -2.04046224332433  0.12926464806481
 1  7.93995939433943 -1.32525131543154 -1.76118559445945
 1  8.48484061546154  1.05533612841284 -1.01439422472247
 1  7.45693419151915  0.62554774297430  0.83497920632063
 1  9.68541098819882 -1.45231267496750 -0.23631078867887
 1  8.46209845414542 -1.81770058575857  1.72984134493449
 1  10.04180024942494 -1.72792667386739  2.18782067346735
 1  9.07014022562256 -0.14037525992599  2.53052435753575
 1  10.10399403720372  1.07595035493549 -0.26986415801580
 1  10.79110885748575  0.93502237783778  1.36428030833083
 1  12.18881642384238 -0.51320375987599  1.20040372367237
 1  12.22996515051505 -0.47725594619462 -0.40851384888489
 1  12.95413028302830  1.61669121412141 -0.29911881648165
 1  13.04224626942694  1.52917716901690  1.30956674607461
 1  14.56993841964196 -0.14156167216722 -0.31171936313631
 1  14.50510040994100  0.41965236073607  2.54316708970897
 1  14.18055532903290 -1.73578125002500  1.74588208630863
 1  15.83340037313731 -0.52178576167617  1.48794527222722
 1  14.99585071997200  2.13372336573657 -0.48458843354335
 1  15.37166119871987  2.26058559405941  1.05925424862486
 1  17.47511882698270  0.07621079167917  0.55209539623962
 1  16.84639216341634  0.24076224542454 -1.13353473087309
 1  17.16622162926293  2.89449599739974 -0.95110809910991
 1  17.97236723282328  2.78839274617462  0.53376004650465
 1  19.41634419561956  0.91235408160816  0.46896024682468
 1  19.28415673367337  1.43497854745474 -2.59571169636964
 1  20.29220351035103  0.45973417161716 -2.05121925532553
 1  18.70472319931993  0.14859714131413 -2.11919999469947
 1  20.36825360396039  3.45355493459346  0.09598035163516
 1  21.46547428772877  2.44947152985299 -1.09545226022602
 1  20.12088874177418  3.39628711591159 -1.77553234953495
 1 -0.27556318141814 -3.44564731413141  2.90248859685969
 1 -1.18783846484649 -4.57383465716572  3.96788742534253
 1 -1.65333934723472 -2.86589506660666  4.05920007320732
 8 -11.45294366866687  4.00937573677368 -0.93543535723572
 1 -12.51411192269227  2.69231047114711 -1.46981758675868

