%nproc=4
%Mem=4GB
# td=(NStates=1) iop(3/107=0140000000,3/108=0140000000) iop(3/107=0140000000,3/108=0140000000) CAM-B3LYP/6-31G(d,p) 

TD

0 1
12 -5.68381988858886  1.29444431873187  0.16484508970897
 6 -5.02349273647365 -2.09845830913091 -0.45031189798980
 6 -3.39348813791379  1.19714999979998  2.74569994329433
 6 -6.19361815751575  4.53333659785979  0.70689089788979
 6 -8.04460022712271  1.14790564126413 -2.32652032553255
 7 -4.30115436873687 -0.30597878967897  0.93954529332933
 6 -4.24854838233823 -1.58816251785179  0.65868821842184
 6 -3.19796292079208 -2.23210651345134  1.45354971867187
 6 -2.90550372137214 -1.29033192409241  2.61788834493449
 6 -3.56658408580858  0.02166953925393  2.13699828502850
 6 -3.50293333273327 -1.77618105950595  3.93916661606161
 6 -1.86867206040604 -2.63831124042404  0.66364166966697
 6 -0.95937758125813 -3.49458703930393  1.44816840484048
 6  0.19498459895990 -3.86652049274927  0.59323751845185
 8  0.40405046934693 -3.56268358195820 -0.65580181438144
 8  1.07051389708971 -4.68570818811881  1.30825543284328
 7 -4.86858767506751  2.59604898179818  1.52863309500950
 6 -4.04813690349035  2.43808122982298  2.52082268556856
 6 -3.78544804850485  3.66121462366237  3.24709526572657
 6 -4.53810436313631  4.58994052235223  2.60732000330033
 6 -5.19000510471047  3.90597869306931  1.48857494979498
 6 -2.82835819891989  3.80085746154615  4.33520771017102
 6 -4.80239677027703  6.07435485598560  2.93064256905691
 8 -4.15958600660066  6.61161904990499  3.76729062896290
 7 -6.87898169806981  2.60210010581058 -0.66041769806981
 6 -6.95312802760276  3.97410702790279 -0.26809849854985
 6 -8.04285947234724  4.59268599339934 -1.17821193069307
 6 -8.39437889118912  3.67921485138514 -2.04075301970197
 6 -7.67221611211121  2.39319532833283 -1.77321326782678
 6 -8.25598858975898  6.01697160656066 -1.32045155395540
 6 -9.50097446074608  3.81153155135514 -3.10739537233723
 6 -8.94160561426143  4.12089023522352 -4.46927333133313
 7 -6.35630404940494 -0.20686570427043 -1.03810890289029
 6 -7.35863539313931 -0.10082615121512 -2.06758096879688
 6 -7.44533204040404 -1.35515721932193 -2.76956947954795
 6 -6.61659120792079 -2.16484605640564 -2.06390255595560
 6 -5.92067048244825 -1.43963752885289 -1.08234436483648
 6 -8.56157161496150 -1.64196432243224 -3.82283918011801
 6 -6.13344701180118 -3.58996458035804 -1.95576913201320
 8 -6.56767116261626 -4.59005670407041 -2.61222748784879
 6 -5.03807236933693 -3.52797084968497 -0.80752307210721
 6 -5.35360283768377 -4.59130457155716  0.24426809860986
 8 -5.79633540514051 -4.48525753385339  1.40072643604360
 8 -4.99857955615562 -5.75630682708271 -0.39020216481648
 6 -5.28563612781278 -6.90007186048605  0.46707853765377
 6  2.35057603080308 -5.08536965716572  0.57171112551255
 6  3.37718225322532 -4.07765792669267  0.91449934973497
 6  4.05246463666367 -3.34136700680068  0.10891452645265
 6  3.75316965586559 -3.26817175847585 -1.35018452295230
 6  5.18165459125913 -2.41722677027703  0.62801660046005
 6  6.58994386568657 -2.84235716091609  0.01109257665767
 6  7.53564888848885 -1.72827218271827  0.54512020252025
 6  9.00161098239824 -1.90273510711071 -0.05622340484048
 6  9.53051943364336 -3.40479111951195  0.04589113141314
 6  10.00945152425242 -0.89891012841284  0.44622713821382
 6  11.35613291569157 -0.90262986988699 -0.15877464366437
 6  12.15245293389339  0.32995762326233  0.10673752135214
 6  13.49401185698570  0.46408127802780 -0.71716647984798
 6  14.45219351835184 -0.72822222482248 -0.40646479737974
 6  14.26724266386639  1.72914908650865 -0.28533778857886
 6  15.46512070247025  2.17989601780178 -0.97053204820482
 6  16.02896548094810  3.55923067586759 -0.58823943714371
 6  17.41874712381238  3.84013185478548 -1.18041197639764
 6  17.32382497219722  3.96556144784478 -2.75783800800080
 6  17.95594500060006  5.17727299259926 -0.72092155105511
 1 -2.60046576937694  1.34930920632063  3.48505897429743
 1 -6.48557653645365  5.64900028042804  0.78553754545455
 1 -8.68724913211321  1.39545984888489 -3.16795227402740
 1 -3.69104016881688 -3.27070238563856  1.72546060686069
 1 -1.82238936283628 -1.05325298689869  2.77495877197720
 1 -2.90615039413941 -2.67241040224022  4.27670121412141
 1 -3.11781257395740 -1.00271017541754  4.73363539333933
 1 -4.57209972167217 -1.77526660756076  4.04372832333233
 1 -2.00726604030403 -3.30441995929593 -0.30894151795179
 1 -1.21173900630063 -1.70038915521552  0.38561668326833
 1 -0.46837227072707 -3.17524882048205  2.42465668436844
 1 -1.40875559715972 -4.44861199239924  1.55339713771377
 1 -1.80438055185519  3.49558908330833  4.19026493619362
 1 -2.89949093919392  4.84870207620762  4.68640489818982
 1 -3.14933792879288  3.50359135663566  5.23311831783178
 1 -5.49945300920092  6.44289848424843  2.41182650405040
 1 -10.05076420992099  2.74256491359136 -3.23945719741974
 1 -10.31248204610461  4.65003884798480 -2.85987627832783
 1 -9.65630543034304  4.33033144714472 -5.22232743504350
 1 -8.16164567396740  4.95894563996400 -4.45307526252625
 1 -8.45856570557056  3.14896425522552 -4.78308823362336
 1 -8.53011060066007 -1.02676321922192 -4.75055605390539
 1 -8.19233021602160 -2.65711911701170 -4.21407404440444
 1 -9.42095217471747 -1.71914873827383 -3.34906181288129
 1 -4.16016337373737 -3.88880370697070 -1.21137442434243
 1  2.52227336033603 -6.03653159615962  1.00104606150615
 1  2.25729647304731 -5.14947192329233 -0.47183063266327
 1  3.47192931523152 -4.03525280708071  1.89414442204220
 1  2.72072705940594 -3.36114173527353 -1.60335287628763
 1  4.20290490379038 -2.39920347964796 -2.02530500100010
 1  4.35772794679468 -3.94990872007201 -1.91870079597960
 1  4.94901494239424 -1.32670909490949  0.36363824732473
 1  5.34842336963696 -2.28561019341934  1.66774165446545
 1  6.63991151785179 -3.90469366146615  0.42616050005000
 1  6.37451761216122 -2.60829843884388 -1.06265686118612
 1  7.27656658795880 -0.73997732283228  0.39338658415842
 1  7.61379348224822 -1.86309289238924  1.67849223452345
 1  8.95786989628963 -2.06335461066107 -1.13103644174417
 1  8.77369188788879 -4.02085085648565 -0.67012080448045
 1  10.47096643744375 -3.56632083418342 -0.21758187168717
 1  9.36158521992199 -3.75960705220522  1.02694313701370
 1  9.54366351695170  0.03927965416542  0.15111047484748
 1  10.02284238173817 -0.85831236513651  1.55144468446845
 1  12.09819496079608 -1.71600163206321  0.46188181498150
 1  11.45635172187219 -1.40910381528153 -1.35434676827683
 1  11.58211924542454  1.20805523472347  0.14293473827383
 1  12.46039086238624  0.25819701110111  1.18195647584758
 1  13.49509631033103  0.55632006430643 -1.87776001470147
 1  14.70187952625262 -0.81360957365737  0.71435711571157
 1  13.89750532153215 -1.61670068636864 -0.67911423292329
 1  15.45711670007001 -0.77557075527553 -0.78304519701970
 1  13.58230642484249  2.58602322142214 -0.47524931263126
 1  14.57955465576558  1.65655594479448  0.73786100000000
 1  16.40510216601660  1.40687930063006 -0.62560905160516
 1  15.25635121852185  2.06098001080108 -2.11092247194719
 1  15.36396780138014  4.54233961196120 -0.65962796089609
 1  16.08759152925293  3.50547718911891  0.56965686608661
 1  18.09096277767777  3.02556404760476 -0.79537861746175
 1  16.63569428982898  4.59111564046405 -3.12194455425543
 1  18.26559248274827  4.29930944424442 -3.40176478157816
 1  17.19565976617662  3.00656172617262 -3.36547458205821
 1  17.85227127432743  5.12346356385639  0.38308997319732
 1  19.00436795909591  5.33927808000800 -0.85937285168517
 1  17.42760431133113  6.27881738483848 -1.15426948824883
 1 -5.07041234263426 -7.63477291039104 -0.18765230293029
 1 -6.03321775207521 -6.92322940954095  0.71762527002700
 1 -4.56914508310831 -7.00587216281628  1.36569102570257
 8 -7.87593518511851  6.79352585338534 -0.42334011801180
 1 -8.63632192929293  6.21490713561356 -2.56060174297430

