%nproc=4
%Mem=2GB
# td=(NStates=1) iop(3/107=0140000000,3/108=0140000000) iop(3/107=0140000000,3/108=0140000000) CAM-B3LYP/6-31G(d,p) 

TD

0 1
12 -6.88253082518252  0.57928707280728  0.15918353785379
 6 -4.50206731323132 -2.10734915671567  0.38926920392039
 6 -4.46006782218222  2.79028066116612  1.09356223782378
 6 -9.12554525922592  3.25343936803680 -0.19740924262426
 6 -9.39760785838584 -1.68684171377138 -0.76810686938694
 7 -4.78820389228923  0.44854425212521  0.62124115621562
 6 -4.07936520212021 -0.90639034583458  0.68007856325632
 6 -2.42325574417442 -0.60062182138214  0.96231829412941
 6 -2.62191215701570  0.96874702350235  1.36117828032803
 6 -4.11229749264926  1.53724380958096  1.03850862556256
 6 -2.15246153185319  1.17600939683968  2.75100966376638
 6 -1.48613736213621 -0.98109067246725 -0.11710038373837
 6 -0.00910902920292 -1.13102480908091  0.33884295779578
 6  0.79040011921192 -1.46068330523052 -0.74215238903890
 8  0.80856092419242 -1.25036764926493 -1.93670466066607
 8  1.87241752835284 -2.06997729632963 -0.16055097759776
 7 -6.71075281748175  2.71963233323332  0.34549829772977
 6 -5.52192275317532  3.34099274247425  0.60671696789679
 6 -5.81692590779078  4.82937262206221  0.71095596419642
 6 -7.11369208260826  5.02115820632063  0.39504608790879
 6 -7.82739444334433  3.53456226462646  0.19981481288129
 6 -4.70845576587659  5.74572200270027  1.21808947694770
 6 -7.86128769006901  6.22045896599660  0.01193071677168
 8 -7.20357427362736  7.31480309690969  0.32989084588459
 7 -8.88903245674567  0.85767662686269 -0.29804245334533
 6 -9.52933660606061  2.02145688098810 -0.30250130243024
 6 -10.97436406670667  1.72641251235124 -0.82727850905090
 6 -11.04072843034303  0.31216212061206 -0.85240609610961
 6 -9.78996065936594 -0.27572573577358 -0.64487656435644
 6 -12.07593436873687  2.56567276037604 -1.03103775457546
 6 -12.17461058155816 -0.47171073337334 -1.31365949964996
 6 -11.92344920702070 -1.19987215241524 -2.83686648134813
 7 -7.02094857775778 -1.33094565586559 -0.08016066056606
 6 -8.20054271587159 -2.15107510421042 -0.53811700970097
 6 -7.61771935703570 -3.57163448584858 -0.45561657175718
 6 -6.34073969516952 -3.55024418531853 -0.08380664126413
 6 -5.85913220192019 -2.26283509800980  0.08150433473347
 6 -8.49255777927793 -4.57910528832883 -0.62621543744374
 6 -5.15112131663166 -4.43872967106711  0.02800082578258
 8 -5.02559430813081 -5.56687722602260 -0.20870036343634
 6 -3.82888661406141 -3.41814237343734  0.25741038823882
 6 -3.32435594649465 -3.66343251875188  1.52500221322132
 8 -3.81525676577658 -3.99928666346635  2.57418608840884
 8 -1.97622929782978 -3.67493379867987  1.43197313651365
 6 -1.06235475757576 -4.02448753885389  2.57610203540354
 6  2.96502839563956 -2.45541071797180 -1.04857610171017
 6  4.18475224262426 -1.63066006710671 -0.83073860616062
 6  5.13430418581858 -1.29301617301730 -1.63390959255926
 6  5.42042602640264 -2.17728086278628 -2.78737571977198
 6  6.17397122172217 -0.29642729562956 -1.28937549604960
 6  7.46104479847985 -0.87049283138314 -0.53127986528653
 6  8.47880044034403  0.36281191579158 -0.17207568806881
 6  9.77553064246425 -0.46613353365337  0.19944163846385
 6  9.52506002230223 -1.17687650235024  1.45012938173817
 6  10.93939626962696  0.70043489768977  0.36942178057806
 6  12.27153242374238 -0.07274596739674  0.45542385358536
 6  13.50864240684068  1.10970824552455  0.53076597499750
 6  14.90290662586259  0.46612989108911  0.64020868296830
 6  15.01334632273227 -0.24590687118712  2.05409533353335
 6  15.95555518391839  1.51562646464646  0.25165837113711
 6  17.41737121522152  0.93705893029303 -0.08345521942194
 6  18.44017356475648  1.96977416861686 -0.48517866466647
 6  19.89119132023202  1.27144563936394 -0.75966605030503
 6  19.81896169746975  0.53332876317632 -2.02502829402940
 6  21.10147731663166  2.43282470047005 -1.05948104400440
 1 -4.11197183548355  3.45054630563056  1.65507490919092
 1 -10.10638462096210  4.09375846094609 -0.30438407230723
 1 -9.90040253185319 -2.58298869816982 -0.79323214911491
 1 -1.90495301210121 -1.25037265506551  1.95711575987599
 1 -2.23100243884388  1.47018749494949  0.80872732613261
 1 -0.67547893159316  0.88936725112511  2.70634134523452
 1 -2.35523369726973  2.18527710411041  2.77393351115111
 1 -2.71860419291929  0.92527041234123  3.52142801190119
 1 -2.20495951625163 -1.70557183018302 -0.59398718551855
 1 -1.65553072207221 -0.13831530443044 -0.72598238903890
 1  0.40767876617662 -0.41356278957896  0.63167903310331
 1 -0.00834455425543 -2.09336567036704  0.89445967806781
 1 -3.78350288068807  6.02777060496050  0.85510046774677
 1 -5.53391367196720  6.56455913181318  1.46865377147715
 1 -4.29729075727573  5.50459942094209  2.11170894319432
 1 -9.02925593969397  6.08362347154716 -0.26361273707371
 1 -12.80115966956696 -1.11266213371337 -0.44033846104610
 1 -13.11699791479148  0.42001840164016 -1.49567720412041
 1 -12.62962078517852 -2.09306142154215 -3.30872798989899
 1 -11.84838180198020 -0.25331791029103 -3.80215238473847
 1 -10.83945076947695 -1.70715403240324 -2.84962156955695
 1 -8.84722390569057 -5.09849640524052 -1.70995322332233
 1 -7.92876809140914 -5.68374838743874 -0.73304295619562
 1 -9.03163044304431 -4.37841980318032 -0.00049544004400
 1 -3.29656923832383 -3.45526925182518 -0.71630993779378
 1  3.25304692009201 -3.57024429822982 -0.79406512361236
 1  2.90228451725173 -2.28217413241324 -1.99042927822782
 1  3.87906523422342 -1.24222697109711  0.15461906350635
 1  4.93361641864186 -2.08587205970597 -3.85798591359136
 1  6.26704028242824 -1.97681635703570 -3.10882210611061
 1  5.93128695609561 -3.22838545284528 -2.48863304710471
 1  6.49628004990499  0.20220555795580 -2.27953057025702
 1  5.88641375077508  0.62621816961696 -0.61232549594960
 1  7.21034221312131 -1.34809300640064  0.41233295489549
 1  8.04188958735874 -1.61083987428743 -1.28222769866987
 1  8.34985711711171  1.05163575837584 -1.23771655695570
 1  8.01396989508951  0.96553174137414  0.62122783118312
 1  10.35603805090509 -1.19994743844384 -0.48553571117112
 1  8.70355259955996 -1.96403521922192  1.47490585138514
 1  10.18998506790679 -1.67492137333733  1.72223411481148
 1  9.49903311491149 -0.35848707110711  2.24959626472647
 1  11.02299593739374  1.58467122702270 -0.70853802540254
 1  11.10119986658666  1.76652552815282  1.20382426272627
 1  12.00351789398940 -0.79203164266427  1.41206488978898
 1  12.53974612861286 -0.63597181778178 -0.34082708020802
 1  13.18609347934794  1.59695924092409 -0.20563946854685
 1  13.16609865466546  1.94224847614761  1.22717850725072
 1  15.03936536233623 -0.53284080008001 -0.08430662186219
 1  15.02095199509951  0.42955335083508  2.86592936593659
 1  14.00526780028003 -0.92325999789979  2.11124862296230
 1  16.05046207930793 -0.61751533463346  2.19187566526653
 1  15.81350248514851  2.12373236663666 -0.79363933863386
 1  15.79186321892189  2.47846738223822  1.13348167136714
 1  17.90616193129313  0.22902607320732  0.77885807250725
 1  17.26073359755976  0.16661483068307 -0.98389976737674
 1  18.14552956005601  2.27542409020902 -1.49460244854485
 1  18.52870286638664  2.84150805770577  0.17207387788779
 1  20.25918848004801  0.58528137433743 -0.11477812701270
 1  19.51695001300130  1.20958600820082 -2.68366049124913
 1  20.83288757875787 -0.30790259205921 -2.68858299169917
 1  19.07666039303930 -0.41337905630563 -1.86509458415842
 1  21.23203998259826  2.80924050315032 -0.05080432683268
 1  22.15337307760776  1.93602018471847 -1.26183889888989
 1  20.78247490039004  3.41803929112911 -1.59359415571557
 1 -0.09753537863786 -4.35261801120112  2.26253460146015
 1 -1.79086876787679 -4.49970724442444  3.57478811541154
 1 -0.89116312961296 -2.97214569166917  3.17122127532753
 8 -12.00644901920192  3.84371917111711 -0.81552336603660
 1 -13.11204171567157  2.41110235033503 -1.27119772477248

