%nproc=4
%Mem=2GB
# td=(NStates=1) iop(3/107=0140000000,3/108=0140000000) iop(3/107=0140000000,3/108=0140000000) CAM-B3LYP/6-31G(d,p) 

TD

0 1
12 -6.65458803090309  0.57834697879788  0.09456707620762
 6 -4.49157626412641 -2.11375979777978  0.54259453645365
 6 -3.97465928132813  2.65585721882188  1.01006388798880
 6 -8.71622432713271  3.25713973807381 -0.23174267596760
 6 -9.26628472607261 -1.48867189678968 -0.88897895659566
 7 -4.71269634153415  0.37952735043504  0.81631066316632
 6 -4.07471473707371 -0.87086679347935  0.88204876027603
 6 -2.69142256085609 -0.84158591779178  1.33316537883788
 6 -2.39560952675268  0.84545469426943  1.59199136163616
 6 -3.84166042894289  1.41555164036404  1.06930170487049
 6 -2.01483776947695  1.20417221312131  3.05612017481748
 6 -1.66504525292529 -1.20887345074507  0.17507883418342
 6 -0.29597771607161 -1.45410711731173  0.67648672217222
 6  0.70104118331833 -1.63092032893289 -0.48039621342134
 8  0.61681174927493 -1.26403901640164 -1.55178616881688
 8  1.73464375097510 -2.31504180278028  0.03428850635064
 7 -6.45238698089809  2.59331970197020  0.36788053595360
 6 -5.26139670057006  3.33294193739374  0.70943723992399
 6 -5.55010922612261  4.73623330813081  0.71573644224422
 6 -6.88597931133113  4.80185627612761  0.27312389568957
 6 -7.43705540944094  3.47139594799480  0.05667049844985
 6 -4.50479539983998  5.65998342884288  1.04106177417742
 6 -7.59829139043904  6.20884780488049 -0.02179265556556
 8 -6.96087000320032  7.13183480008001  0.27512536933693
 7 -8.61673522702270  0.87773863306331 -0.43488613771377
 6 -9.24661833423342  2.03677841314131 -0.57585863816382
 6 -10.70589722002200  1.83674354545455 -0.91639742094209
 6 -10.79905426292629  0.44864576897690 -1.04662551805180
 6 -9.49062072537254 -0.21326949014901 -0.80834291099110
 6 -11.77946472177218  2.83217941104110 -1.25429007980798
 6 -12.05171829232923 -0.32079564186419 -1.50880901460146
 6 -12.12445930803080 -0.52521468666867 -3.01620441514151
 7 -6.90731721462146 -1.27910047134713 -0.36088873337334
 6 -8.09218187978798 -2.19041903860386 -0.57946114411441
 6 -7.66993457855786 -3.55038236063606 -0.58293930403040
 6 -6.32911853305330 -3.54555371627163 -0.35988424902490
 6 -5.87383367206721 -2.13551236573657 -0.14135795149515
 6 -8.47708623212321 -4.82066944474447 -0.97772058795880
 6 -5.16908311281128 -4.44360015811581 -0.03318529282928
 8 -5.17470921962196 -5.57253779207921 -0.22183167656766
 6 -4.02738646404640 -3.44620517971797  0.50847549474947
 6 -3.53766727762776 -3.87458363386339  2.03197291029103
 8 -4.26171141124112 -4.11574830963096  2.96855552535254
 8 -2.11950362526253 -3.85636194149415  1.95298523772377
 6 -1.43708223032303 -4.26732182228223  3.15066949214921
 6  2.79725161796180 -2.69638481538154 -0.82250349444945
 6  4.02191595899590 -1.71806880798080 -0.61588712101210
 6  4.87755851125112 -1.40132700410041 -1.53090929252925
 6  5.07745172897290 -2.06032916761676 -2.92566954915492
 6  5.98502232683268 -0.38983663656366 -1.20136669516952
 6  7.28970766476648 -0.99542532463246 -0.95617235453545
 6  8.30617317761776  0.10185582018202 -0.57031551205120
 6  9.73437652705270 -0.48239515981598 -0.06687499319932
 6  9.60777829412941 -1.22232104680468  1.28663303210321
 6  10.86358868886889  0.62666752095210  0.02213705210521
 6  12.21852712321232 -0.02283097589759  0.16585489668967
 6  13.34676621922192  1.05835311001100  0.28292119051905
 6  14.76358269346935  0.40894417251725  0.34586924902490
 6  15.06751173927393 -0.35934821532153  1.58250817481748
 6  15.73956358475848  1.55953085508551  0.10888409370937
 6  17.20539001710171  1.10403562796280 -0.14726160006001
 6  18.22202174957496  2.10954814601460 -0.47100724752475
 6  19.56329853095309  1.83451194599460 -0.70737082078208
 6  19.82585238653865  1.35736116641664 -2.10983677487749
 6  20.59556672557256  2.95829724772477 -0.30049514541454
 1 -3.33631426972697  3.31788303930393  1.41814121582158
 1 -9.36349033153315  4.31793087818782 -0.38459209310931
 1 -10.32458495009501 -2.24096449574957 -1.03602642854285
 1 -2.53441595839584 -1.19999761756176  2.33546359465947
 1 -1.59352869146915  0.96534701090109  0.82854930833083
 1 -1.38975035873587  0.49136745114511  3.39520023112311
 1 -2.01101927582758  2.28657723412341  2.99824594239424
 1 -3.01124345684568  1.21161904720472  3.66514238333833
 1 -2.18682770307031 -1.98764003700370 -0.38850663746375
 1 -1.92109727872787 -0.60919239213921 -0.46180597139714
 1 -0.30144214591459 -0.58996042934293  1.37115298049805
 1 -0.03532725252525 -2.25618195199520  1.48829906200620
 1 -3.60701523192319  4.99131695959596  0.40679563726373
 1 -4.79243952455245  6.63044572047205  0.45031193729373
 1 -4.65280630883088  6.26437539853985  2.29296706900690
 1 -8.61329434353435  6.25584069326933 -0.44792116791679
 1 -12.01738129172917 -1.18767963546355 -0.89054348154816
 1 -12.97845406040604  0.30303670347035 -1.20432806920692
 1 -12.87508533163316 -1.12910502590259 -2.88282539963996
 1 -12.19595655945595  0.26340376187619 -3.60673284278428
 1 -11.33159998439844 -1.09937325432543 -3.71307791519152
 1 -8.85164434773477 -4.79040559615962 -2.16368859685969
 1 -7.71902711731173 -5.76141615421542 -0.64736438833883
 1 -9.37258453845384 -5.05950791199120 -0.43932932343234
 1 -3.17374695609561 -3.80014373927393  0.02261395459546
 1  3.06661827722772 -3.59137641144114 -0.45949166626663
 1  2.59358364716472 -2.75164107910791 -1.84112434773477
 1  3.78613594129413 -1.36464921332133  0.39438303990399
 1  4.03170622762276 -2.19751322382238 -3.48784889988999
 1  5.91742532093209 -1.60022869826983 -3.78222944684468
 1  5.29910373777378 -3.30957357165717 -2.75172935673567
 1  6.38347876977698  0.33672901030103 -1.77468008520852
 1  5.72889799919992  0.21382693049305 -0.42939720312031
 1  7.22278345724572 -1.85382357945795 -0.22497077547755
 1  7.52476787518752 -1.53188197849785 -1.85460493639364
 1  8.63750588198820  1.08013860866087 -1.46220900620062
 1  8.00947944604460  0.85298048624862  0.40244595299530
 1  10.20837328442844 -1.38859630333033 -0.75094225182518
 1  9.04876712101210 -2.44835365106511  1.36708506930693
 1  10.62551862126213 -1.19285316651665  2.07826971837184
 1  8.68930214181418 -0.37349857225723  2.12115342044204
 1  10.89582322012201  1.17888064796480 -0.93266043764376
 1  10.53877362396240  1.35429430503050  0.80060394069407
 1  11.80943848604860 -0.78550098959896  0.87351103440344
 1  12.58917107110711 -0.63329154975498 -0.65739873737374
 1  13.26828169816982  1.89665921092109 -0.84534343894389
 1  13.21605365016502  1.91656590789079  1.14517030643064
 1  15.20077150295029 -0.42018953495350 -0.45264345554555
 1  15.25235513541354 -0.13592319681968  2.48856162916292
 1  14.50968824232423 -1.42084975687569  1.59034653275328
 1  15.98716574967497 -0.63034661776178  1.65845232293229
 1  15.12882401730173  2.51122111551155 -0.65475545024503
 1  15.75422945554555  2.45676521202120  1.15057338053805
 1  17.60625194029403  0.35580875147515  0.62543272997300
 1  16.94479200340034  0.43220138933893 -1.03256463386339
 1  17.85911091819182  3.05218176597660 -1.00367335563556
 1  18.39867986408641  2.91047495439544  0.51587825832583
 1  19.97067962916292  1.25279812601260  0.19780313111311
 1  19.84205252325232  2.26873192279228 -3.17143926912691
 1  21.03250754075408  0.76124432263226 -2.28189232263226
 1  19.24647737473747  0.36601888348835 -2.50535861056106
 1  20.41985876447645  3.24820439953995  0.88416917051705
 1  21.64216195649565  2.60710729342934 -0.79685240024002
 1  20.32662931583158  4.11007849504951 -0.58825362166216
 1 -0.91280690579058 -4.51564431383138  2.87266561456146
 1 -1.81670135113511 -5.06538381208121  4.02144278087809
 1 -1.39514352765277 -3.50561903900390  3.88143229642964
 8 -11.61053942824283  4.02540733993399 -1.07963977767777
 1 -12.51552206370637  2.81280252035203 -1.43771437643764

