%nproc=4
%Mem=4GB
# td=(NStates=1) iop(3/107=0140000000,3/108=0140000000) iop(3/107=0140000000,3/108=0140000000) CAM-B3LYP/6-31G(d,p) 

TD

0 1
12 -5.62901440804080  1.08918379267927  0.21682028722872
 6 -5.09871025822582 -2.15993445674567 -0.33494036083608
 6 -3.48222701180118  1.18866915171517  2.75373074637464
 6 -6.34167296299630  4.49510277447745  0.75916612541254
 6 -7.94354012111211  1.21195204590459 -2.37918559205921
 7 -4.45422967626763 -0.40066825862586  1.09324066286629
 6 -4.28445197269727 -1.70272397399740  0.77221957155716
 6 -3.21523464796480 -2.33128643144314  1.60038440214021
 6 -2.94254742574257 -1.38339123002300  2.67265382148215
 6 -3.58550597799780 -0.05101772947295  2.14551913711371
 6 -3.51252429182918 -1.75285872727273  4.00303300270027
 6 -1.97463265646565 -2.66043345264526  0.63230853635364
 6 -0.90287193069307 -3.50849843044304  1.45912950095009
 6  0.31561666216622 -3.87875171587159  0.54178237293729
 8  0.50927099139914 -3.49107642124212 -0.52995923012301
 8  1.09695654135414 -4.73893351065106  1.29407401470147
 7 -5.01372218851885  2.60147952485249  1.46719695139514
 6 -4.08513060286029  2.36191361306131  2.43594419771977
 6 -3.80909041274127  3.61679018121812  3.20992154835484
 6 -4.60768132083208  4.56382791109111  2.60297956925693
 6 -5.39848595279528  3.89401749694970  1.51770786308631
 6 -2.86227159025903  3.81967934373437  4.23906809620962
 6 -4.63468999959996  6.04438185868587  2.88127763256326
 8 -3.96551659965997  6.48754664266427  3.84192809270927
 7 -6.84205800570057  2.62018191399140 -0.67630928722872
 6 -6.96272898769877  3.86783640084008 -0.29589127782778
 6 -7.90079526592659  4.61172789758976 -1.18487259675968
 6 -8.32456190949095  3.75544247414741 -2.15263420782078
 6 -7.68996788728873  2.47971398019802 -1.78844479097910
 6 -8.34375736663666  6.10586049544955 -1.09068857765777
 6 -9.36236059935994  3.91940233843384 -3.22940757355736
 6 -8.69344079777978  4.27526567276728 -4.55231163516352
 7 -6.37144556355635 -0.08830384808481 -1.22004709670967
 6 -7.35783531313131 -0.05350141874187 -2.06827103780378
 6 -7.58920642784279 -1.29767147074707 -2.78549107170717
 6 -6.75750529932993 -2.16796636843684 -2.15614177987799
 6 -5.93999241464146 -1.40070363546355 -1.19704583498350
 6 -8.59988544634463 -1.64103422942294 -3.75279217541754
 6 -6.27230089718972 -3.54051963586359 -2.07703125822582
 8 -6.59081347684768 -4.60323802220222 -2.64214047914792
 6 -5.11152971507151 -3.47646569916992 -0.89093141294129
 6 -5.37411488888889 -4.67440288138814  0.10805447724772
 8 -5.93928970057006 -4.51779078717872  1.19173553695370
 8 -4.94779447764776 -5.82736393279328 -0.29410255485549
 6 -5.40027759195920 -6.90080193349335  0.52967479727973
 6  2.30336130933093 -5.10654177437744  0.63721767616762
 6  3.38103263826383 -4.18501866276628  0.90419831963196
 6  4.05481487168717 -3.34692756285629  0.12065570057006
 6  3.78144248314831 -3.36312125342534 -1.33087259175918
 6  5.13447987378738 -2.40153520112011  0.70618441724172
 6  6.57955282658266 -2.67953087828783  0.10590205760576
 6  7.64175949954996 -1.68799815531553  0.58949463996400
 6  9.06042686398640 -1.93378821242124 -0.00106788928893
 6  9.57445382708271 -3.43832447284728  0.18225476777678
 6  10.04033461256126 -0.95493573097310  0.41238375387539
 6  11.40062736513651 -0.77702730963096 -0.26660542674267
 6  12.28043573217322  0.36281090859086  0.24195104270427
 6  13.58764121992199  0.45807067696770 -0.58802356555656
 6  14.67109540854085 -0.66019542214221 -0.40853500440044
 6  14.26189212881288  1.86575274687469 -0.14644389918992
 6  15.51529571997200  2.22027005520552 -0.95081007600760
 6  16.11759434383438  3.60850560336034 -0.70229084228423
 6  17.40120536963697  3.90223806540654 -1.38612254745475
 6  17.24906749644964  3.80754564626463 -2.88711093529353
 6  17.92521192729273  5.24358962426243 -0.86256571547155
 1 -2.97602332513251  1.39098337373737  3.74846531493149
 1 -6.44517249604961  5.58695407580758  0.77979697139714
 1 -8.75736614381438  0.92248255115512 -3.16864234303430
 1 -3.62208327312731 -3.29446476187619  1.86427448824882
 1 -1.90098722262226 -1.13276093769377  2.83768504460446
 1 -2.82250202930293 -2.58728188938894  4.37362090609061
 1 -3.27517831053105 -1.01110101450145  4.75074710451045
 1 -4.53839635133513 -1.69836891779178  4.17203115361536
 1 -2.33523883758376 -2.89354887218722 -0.27624824862486
 1 -1.44275210761076 -1.69659877617762  0.43591171277128
 1 -0.63346878037804 -2.77270856645665  2.32504672337234
 1 -1.45715043664366 -4.34347147834783  1.82478427642764
 1 -1.94178429222922  3.56366589098910  3.99634554425442
 1 -2.95896688678868  4.74231143714371  4.65931218891889
 1 -3.19918291329133  3.18437943544354  5.20602560856086
 1 -5.28769183308331  6.70966516091609  2.36543186458646
 1 -9.94697383088309  3.11999265636564 -3.26516976867687
 1 -10.07366816471647  4.76867071117112 -3.14484477517752
 1 -9.55305510531053  4.30726914091409 -5.03302850515052
 1 -8.07856736613661  5.24470421582158 -4.43410336533653
 1 -8.27117696669667  3.45146450525053 -4.86460638543854
 1 -8.48979656925693 -0.99708025092509 -4.59116011431143
 1 -8.55542652565257 -2.60789419451945 -4.15422805980598
 1 -9.63328340784079 -1.68364518791879 -3.55390229692969
 1 -4.11860921832183 -3.63237806440644 -1.50714400130013
 1  2.47169830283028 -6.12451039403940  0.90601655855586
 1  2.14223496689669 -4.93026000210021 -0.30588403800380
 1  3.50810293259326 -4.19465874767477  2.02188719631963
 1  2.70268525522552 -3.98082370347035 -1.44004654565457
 1  3.65447006030603 -2.09013257255726 -1.58632110261026
 1  4.66241841584158 -3.75671940114011 -2.00945987188719
 1  4.68637867876788 -1.51962838683868  0.42954483798380
 1  5.41184971227123 -2.44650628302830  1.85417029732973
 1  6.79754728142814 -3.79478267036704  0.36502438643864
 1  6.70399055945595 -2.63274088308831 -1.05380597609761
 1  7.39943887518752 -0.61129445454545  0.24067131263126
 1  7.69275137803780 -1.81980856395640  1.77353173847385
 1  8.89598370767077 -1.85977425262526 -1.08953229132913
 1  8.78991351005100 -4.09050782218222 -0.22994678707871
 1  10.49611895269527 -3.77969217131713 -0.33473358685869
 1  9.57242630403040 -3.64514560606061  1.26894733743374
 1  9.58966811741174  0.03953968016802  0.59389475327533
 1  10.54057415491549 -1.12154868876888  1.47443698369837
 1  11.88646378767877 -1.72492252415242 -0.32416678987899
 1  11.19260534723472 -0.56590949584958 -1.39345067866787
 1  11.80707174067407  1.36747117631763  0.06071651645165
 1  12.63846867016701  0.31702289368937  1.26344462466247
 1  13.44461126182618  0.48760319261926 -1.52986522522252
 1  15.03855319361936 -0.68838705140514  0.59940562056206
 1  14.07840341134113 -1.51431044734473 -0.64350067156716
 1  15.57158814721472 -0.43462666086609 -1.14368126062606
 1  13.44520271447145  2.75530014911491 -0.38031981968197
 1  14.57700440074007  2.00259054825483  0.98900611451145
 1  16.09360101590159  1.44165277797780 -0.69293578427843
 1  15.47811339473948  2.18861277407741 -1.98861024072407
 1  15.19221062566257  4.27007238523852 -0.77590958905891
 1  16.32429519961996  3.71297793919392  0.23503340374037
 1  18.07113079447945  3.09152064326433 -1.19043812341234
 1  16.46945766616662  4.30617714661466 -3.38330068986899
 1  18.19927585108511  4.02699221252125 -3.42009661476148
 1  16.77833803400340  2.79181025102510 -3.42092012661266
 1  17.87524357155715  5.02862407990799  0.31563322752275
 1  19.06535405770577  5.18399255145515 -1.25193210761076
 1  17.35916746764676  6.10138964206421 -1.12037609890989
 1 -5.06659196059606 -7.82073150625062  0.03631009330933
 1 -6.54012844314431 -6.79622670927093  0.89110261776178
 1 -4.78540670927093 -6.87955953155316  1.40393485008501
 8 -7.85817340894089  6.95724222502250 -0.46884466846685
 1 -9.10412870997100  6.30706635153515 -1.78469415221522

