%nproc=4
%Mem=4GB
# td=(NStates=1) iop(3/107=0140000000,3/108=0140000000) iop(3/107=0140000000,3/108=0140000000) CAM-B3LYP/6-31G(d,p) 

TD

0 1
12 -5.65632713931393  1.25359023332333  0.18579718491849
 6 -4.94206459365937 -2.17005546884688 -0.34858172497250
 6 -3.55628441754175  1.12688297309731  2.85518089138914
 6 -6.14369316501650  4.55820908510851  0.61332154095410
 6 -7.91935770287029  1.17468831953195 -2.39130680418042
 7 -4.43067732103210 -0.31610980278028  1.13825516431643
 6 -4.22234576207621 -1.70457415901590  0.66104845444544
 6 -3.21055417991799 -2.35170847364736  1.59564392809281
 6 -2.84350752175218 -1.33351624252425  2.58788534463446
 6 -3.58474590199020 -0.12022465016502  2.20227481268127
 6 -3.30758379777978 -1.73298674007401  4.07895059445945
 6 -2.01586677987799 -2.90470788008801  0.73828913441344
 6 -0.99751139463946 -3.63561114171417  1.56841042904290
 6  0.20264536503650 -3.98826266696670  0.69904809950995
 8  0.25840590489049 -3.69734704830483 -0.44457069126913
 8  1.10653749944995 -4.74209382668267  1.40138474577458
 7 -4.96933775007501  2.61877125402540  1.49496972867287
 6 -4.16753884368437  2.31182860456046  2.45874647794779
 6 -3.87839734343434  3.57279578177818  3.20351090729073
 6 -4.51585213791379  4.61251277957796  2.56915618691869
 6 -5.26614271847185  3.88617671287129  1.56684277657766
 6 -2.92384774787479  3.69377675347535  4.33516770617062
 6 -4.78184471507151  6.03514093459346  2.96177568236824
 8 -4.10519056705671  6.62334022202220  3.80233413331333
 7 -6.86030983088309  2.65252514831483 -0.68538019431943
 6 -6.96678939373937  3.95115473267327 -0.38963065176518
 6 -7.93206839323932  4.62005873067307 -1.21625573507351
 6 -8.39486894019402  3.67780471037104 -2.09788873327333
 6 -7.69525841634163  2.46118212701270 -1.80269621612161
 6 -8.24740773167317  6.03066297569757 -1.33753326212621
 6 -9.48127249054906  3.93659405760576 -3.13178781158116
 6 -8.88164961866187  4.30350849704970 -4.52972937693769
 7 -6.30051847084708 -0.15079009670967 -1.13359845184518
 6 -7.13556308590859 -0.03826989558956 -2.15480969166917
 6 -7.46454396159616 -1.34759646324632 -2.79502202480248
 6 -6.56861641044104 -2.11559113091309 -2.13702986868687
 6 -5.91320973637364 -1.37768133323332 -1.14591072147215
 6 -8.55731118891889 -1.68156828282828 -3.69804670087009
 6 -6.07885155225523 -3.46805238913891 -2.02549610471047
 8 -6.46080047554755 -4.54430212861286 -2.60417668276828
 6 -4.94686324842484 -3.57305535813581 -0.89848216801680
 6 -5.39271674907491 -4.62999844094410  0.12177584938494
 8 -5.76082185378538 -4.29096810491049  1.30795715911591
 8 -5.14301399959996 -5.82796399279928 -0.36359950455046
 6 -5.52250981518152 -6.88536038933893  0.53576540634063
 6  2.32754372757276 -5.02431355155516  0.66775072947295
 6  3.47361189618962 -4.04978513941394  1.03464136393639
 6  4.08075746594659 -3.26274914501450  0.20472410741074
 6  3.76934127302730 -3.31458639993999 -1.32202170667067
 6  5.23363978977898 -2.31673672127213  0.57296109490949
 6  6.59995486678668 -2.58976190139014 -0.11482001460146
 6  7.68884420802080 -1.71490084558456  0.50262595309531
 6  9.01696251755176 -1.89009384298430 -0.25483326582658
 6  9.46348272997300 -3.40089072947295 -0.22678613631363
 6  10.07546812591259 -0.85930616801680  0.27563007850785
 6  11.47630493289329 -0.84776438333833 -0.44515328152815
 6  12.27827551615161  0.31179580708071  0.13341018861886
 6  13.57951040684068  0.45080995089509 -0.60772553575358
 6  14.50490878987899 -0.78647805040504 -0.28626277717772
 6  14.22023796339634  1.82529870147015 -0.24985424022402
 6  15.52622681308131  2.15224325252525 -0.91637663266327
 6  16.01239382378238  3.55245999879988 -0.49128974217422
 6  17.32355760486049  3.85722356395640 -1.28653258845885
 6  17.08607119681968  3.97034192589259 -2.74266649084908
 6  17.95980538663866  5.17321258655866 -0.69714917381738
 1 -2.77523324612461  1.06389066446645  3.61977244564456
 1 -6.18964694349435  5.55203058345835  0.68680767246725
 1 -8.95588599579958  1.21243154605461 -3.00614609340934
 1 -3.64263532833283 -3.27637295269527  2.11153921472147
 1 -1.80837796169617 -1.28435609720972  2.71379265536554
 1 -2.94116389548955 -2.68815197639764  4.49321286528653
 1 -3.13274406710671 -0.98998890329033  5.00508253805380
 1 -4.35921843354336 -1.92449153005301  4.05968991949195
 1 -2.29336465016502 -3.51448096539654 -0.13398402220222
 1 -1.55607343974397 -2.11802091839184  0.18972709430943
 1 -0.55874130763076 -2.83674497009701  2.40613483218322
 1 -1.41125584718472 -4.36339347054705  2.09371116911691
 1 -1.91136124992499  3.33703322772277  4.00755666536654
 1 -2.61848283838384  4.80458766476648  4.82329858755876
 1 -3.32084507950795  3.22081307880788  5.20219522552255
 1 -5.63516658055806  6.60685487988799  2.37478279967997
 1 -9.96145527902790  2.84780543764376 -3.16542979467947
 1 -10.24567536543654  4.48990283438344 -2.85241553225323
 1 -9.72823262306231  4.37873628762876 -5.21085628792879
 1 -8.19583909330933  5.07462720812081 -4.41477143214321
 1 -8.17104695369537  3.62025138393839 -4.98815874067407
 1 -8.49686727632763 -1.00648119101910 -4.79179017731773
 1 -8.43643462646265 -2.83909731483148 -3.80399303630363
 1 -9.47314739423942 -1.48856567996800 -3.11443835053505
 1 -4.03795115251525 -3.86429125572557 -1.40158344524452
 1  2.56351748474848 -6.14773271627163  0.92544850175018
 1  2.25995673907391 -4.76220319641964 -0.42254570417042
 1  3.69744186648665 -3.97035631743174  2.20632564016402
 1  2.75471045774578 -3.64773039413941 -1.67593013401340
 1  4.08243285658566 -2.27665122442244 -1.86467893839384
 1  4.58053022702270 -4.19191292049205 -1.81797072297230
 1  4.76981702260226 -1.36573299729973  0.25672755625563
 1  5.34723325062506 -2.34016564896490  1.73435831613161
 1  6.99944747144714 -3.61500469256926 -0.00848296429643
 1  6.45598575897590 -2.36690429942994 -1.20220081558156
 1  7.33716264756476 -0.63963728882888  0.21608885438544
 1  7.78538064096410 -1.94270085318532  1.52079646494649
 1  8.67174128342834 -1.71292956815682 -1.41103444154415
 1  8.99781430013001 -4.15011378277828 -0.97074086648665
 1  10.57417675847585 -3.57496169826983 -0.48794890839084
 1  9.43523258465847 -3.67205829732973  0.87148759145915
 1  9.44727387798780 -0.06665093889389  0.12665802960296
 1  10.54354445194519 -1.04672120602060  1.25374491449145
 1  11.86938207950795 -1.81997202910291 -0.25337971117112
 1  11.09837592429243 -0.81060396529653 -1.57566890049005
 1  11.71488252175218  1.29734416361636  0.21952239703970
 1  12.56089091239124  0.02229342074207  1.18156643684368
 1  13.17065386608661  0.27822225452545 -1.64818705740574
 1  15.10075941424142 -0.50026823952395  0.81886756675668
 1  14.03485905690569 -1.89630864716472 -0.13100942244224
 1  15.45054604300430 -0.82014521272127 -0.99116600910091
 1  13.48308650285029  2.50520513961396 -0.36606839453945
 1  14.42615931623162  1.78434872407241  0.91842905680568
 1  16.41553320912091  1.26769538223822 -0.80060655135514
 1  15.28277386078608  2.23412732553255 -1.99097047674767
 1  15.30105150975097  4.27625300330033 -0.47433943204320
 1  16.04063683378338  3.64606124752475  0.52604250465047
 1  17.93795747714772  3.02709420062006 -1.13372245184518
 1  16.55760648104810  4.88098462736274 -3.18549090889089
 1  18.20770669416942  3.98858837213721 -3.18178278337834
 1  16.49087928812881  3.18758982898290 -3.27744577917792
 1  18.18857490469047  5.21837305480548  0.38278994319432
 1  18.81530905320532  5.52255640784078 -1.18348526292629
 1  17.17825937683768  5.83759326242624 -0.85328939023902
 1 -5.41360666206621 -7.99190862396240  0.15342180448045
 1 -6.63929836013601 -6.76501358795880  0.83468697619762
 1 -4.97080524912491 -6.76709828542854  1.48592304890489
 8 -7.94476206780678  6.93912041284128 -0.56716450045005
 1 -8.96648494559456  6.55784142904290 -2.24544022682268

