%nproc=4
%Mem=4GB
# td=(NStates=1) iop(3/107=0140000000,3/108=0140000000) iop(3/107=0140000000,3/108=0140000000) CAM-B3LYP/6-31G(d,p) 

TD

0 1
12 -5.63486499309931  1.20632550685069  0.22180078527853
 6 -4.97273766096610 -2.08343680698070 -0.41672853965397
 6 -3.46376516561656  1.16702698749875  2.77456282958296
 6 -6.18155695139514  4.47576084028403  0.62817302610261
 6 -7.88222398949895  1.19888073877388 -2.53882155565557
 7 -4.33835808910891 -0.31689988178818  1.08097943674367
 6 -4.28318184568457 -1.66384008560856  0.61287363696370
 6 -3.22092521702170 -2.39085238803880  1.45189955365537
 6 -3.04783795479548 -1.35636852775278  2.60592714881488
 6 -3.60969839723972 -0.10197282498250  2.21679626482648
 6 -3.55198823822382 -1.78205164656466  3.91360405980598
 6 -2.02266745994599 -2.83415082438244  0.69318462396240
 6 -1.02730437393739 -3.64690227082708  1.51104469246925
 6  0.20359546004600 -3.92687652835283  0.74881307600760
 8  0.45181524582458 -3.65975328892889 -0.47386362056206
 8  1.10427727342734 -4.68080769806981  1.43487809510951
 7 -4.96589740604060  2.59811918881888  1.48900913261326
 6 -3.87131922172217  2.42938035973597  2.41958256155616
 6 -3.71432093579358  3.59154765696570  3.17359791599160
 6 -4.58790934363436  4.51904343264326  2.67421669296930
 6 -5.28844494869487  3.90652874807481  1.50687677997800
 6 -2.82504786788679  3.57842521832183  4.35130932033203
 6 -4.73982051265127  5.89057647814781  3.10610011481148
 8 -4.05245529352935  6.44331221922192  4.00142404230423
 7 -6.79810361026103  2.58759865566557 -0.78834049034903
 6 -6.90540325512551  3.91963158035804 -0.45308699739974
 6 -7.80834602100210  4.68400512531253 -1.20961507100710
 6 -8.29694914821482  3.69381631153115 -2.12830177457746
 6 -7.68114700520052  2.42799880868087 -1.86408235473547
 6 -8.13556654755476  6.07358726812681 -1.11350085888589
 6 -9.40765512881288  3.91111150935094 -3.17818245104510
 6 -8.90163161686169  4.26169431563156 -4.54433083708371
 7 -6.36927534653465 -0.14038905660566 -1.11340643264326
 6 -7.25643517311731 -0.01518758735874 -2.17342155285529
 6 -7.48840634783478 -1.31237294089409 -2.80095261786179
 6 -6.63756330513051 -2.11330090189019 -2.06167233293329
 6 -5.91639005440544 -1.33579714481448 -1.07471360176018
 6 -8.26546200400040 -1.62828295429543 -4.01309820602060
 6 -6.20207387448745 -3.56580216411641 -2.03743729882988
 8 -6.52655705120512 -4.52816051445144 -2.76677294239424
 6 -5.02981154325433 -3.54786283888389 -0.96653897369737
 6 -5.36704418181818 -4.52968840994099  0.09151282308231
 8 -5.72790856245625 -4.37283629172917  1.32607897129713
 8 -5.13413311151115 -5.79798099449945 -0.35466861146115
 6 -5.47241480568057 -6.87101895519552  0.56764859465947
 6  2.35623659685969 -4.92939405960596  0.74105806020602
 6  3.44051858685869 -4.04571473237324  1.17949584938494
 6  4.06835622582258 -3.29661253135314  0.29698333333333
 6  3.75135947484748 -3.19317425872587 -1.17768727322732
 6  5.09821624742474 -2.28735378297830  0.72144594339434
 6  6.52311718301830 -2.57342026722672  0.09337080448045
 6  7.64651997559756 -1.80036939243924  0.58162385288529
 6  9.04275509680968 -1.98791362496250 -0.04565234773477
 6  9.61714809650965 -3.34972561296130  0.06756329862986
 6  9.93073365246525 -0.82683292069207  0.49530204570457
 6  11.29699700210021 -0.77653726062606 -0.33943270947095
 6  12.17423511211121  0.29141376887689  0.12753960156016
 6  13.54747720352035  0.47189205910591 -0.56557132033203
 6  14.49653795279528 -0.71089049164916 -0.20721487238724
 6  14.12364830443044  1.83609978157816 -0.37472672747275
 6  15.42535672607261  2.10056808500850 -1.11423641864186
 6  15.87242982738274  3.48348310111011 -0.78719933313331
 6  17.27105235433543  3.89078692029203 -1.41757569276928
 6  17.02083467316731  3.88867375907591 -2.95553777797780
 6  17.83203260936093  5.28904416971697 -0.88927838673867
 1 -2.69756547934794  1.23736801220122  3.56532700110011
 1 -6.52768074687469  5.27708308870887  0.71438042974298
 1 -8.58848925612561  1.08673897679768 -3.43279875867587
 1 -3.74863592839284 -3.35510082548255  1.82496055685569
 1 -1.96771389528953 -1.32726038763876  2.91136241234123
 1 -3.19562934203420 -2.85967912911291  3.89641318531853
 1 -2.99215000770077 -1.17962786718672  4.76216824662466
 1 -4.73738625032503 -1.74759384028403  4.17755170567057
 1 -2.32338765246525 -3.41325084238424 -0.15717634143414
 1 -1.65135296769677 -1.79826894319432  0.31108923052305
 1 -0.68231366486649 -3.26168746434643  2.48323254195420
 1 -1.55464018561856 -4.70150728192819  1.89297109510951
 1 -1.70960107390739  3.51498102250225  3.99152506220622
 1 -2.84771576167617  4.51833903990399  4.84309056675668
 1 -3.09840283528353  2.75450644814481  5.05465047104710
 1 -5.67762082598260  6.31836603100310  2.58670399179918
 1 -9.89960909440944  2.89455011211121 -3.33878713041304
 1 -10.17339813771377  4.70990483458346 -2.86319661036104
 1 -9.77455725552555  4.31385979998000 -5.29943514581458
 1 -8.53927343674367  5.24138388378838 -4.52100205520552
 1 -8.12004185318532  3.51350070887089 -4.83528345314531
 1 -7.94233182278228 -0.90996153905390 -4.90425142344234
 1 -8.13430441344134 -2.77771117621762 -4.34849748674867
 1 -9.23622370187019 -1.34504132753275 -3.78771567826783
 1 -4.09776713411341 -3.94198902550255 -1.58661194809481
 1  2.65056618961896 -5.94155209820982  1.27940389728973
 1  2.04177492089209 -5.20874785088509 -0.30954440404040
 1  3.79351147344734 -4.27103638543854  2.21547655525553
 1  2.77422240894089 -3.37301292239224 -1.52471501250125
 1  4.10446505980598 -2.15364892419242 -1.71464393489349
 1  4.21747392139214 -4.04750848004800 -1.67782670857086
 1  4.81379142004200 -1.28968539253925  0.32398428192819
 1  5.33630215751575 -2.17775940834083  1.81402628292829
 1  6.82202972967297 -3.63914710681068  0.24187207120712
 1  6.70725088548855 -2.70737834683468 -1.06135673117312
 1  7.42539147044704 -0.78462178727873  0.78406565206521
 1  7.76754885778578 -1.99704628772877  1.87389177447745
 1  8.68454256355636 -1.80283855905591 -1.16926026412641
 1  9.06235075377538 -3.88774754615461 -0.49859365176518
 1  10.68471781258126 -3.31461566366637 -0.26723683718372
 1  9.57695675707571 -3.52436352785278  1.17338778147815
 1  9.47017616821682  0.01374710091009  0.49706507030703
 1  10.32921301880188 -1.30942747664766  1.46243578357836
 1  11.84996013731373 -1.76727675957596 -0.31617599079908
 1  11.15486157285729 -0.75728863376338 -1.50151148474848
 1  11.53205423892389  1.24933936313631 -0.08698825402540
 1  12.33244806810681  0.14711590299030  1.24825310551055
 1  13.47515431613161  0.18227265956596 -1.58720095879588
 1  14.77408674697470 -0.56392460516052  0.93510919091909
 1  13.98739431043104 -1.68048706500650 -0.50389671117112
 1  15.36001699009901 -0.84930812901290 -0.93769066156616
 1  13.63585177937794  2.87359197829783 -0.57877966566657
 1  14.20168686898690  1.55875616481648  0.66458367226723
 1  16.30321197699770  1.40993960666067 -0.95728221892189
 1  15.15249083248325  2.19269318211821 -2.14058543824382
 1  15.15282668726873  4.15783116111611 -0.97399939803980
 1  16.07172994309431  3.62988963036304  0.30096999739974
 1  18.03015669706971  3.09464095529553 -1.03935301490149
 1  16.23718443884388  4.55201173007301 -3.08701106090609
 1  18.06670259375938  4.18406792009201 -3.44395900100010
 1  16.94952515271527  2.88966003600360 -3.32043007760776
 1  18.09603565076507  5.17106832433243  0.10914257845785
 1  18.69776729902991  5.81896604880488 -1.27956487088709
 1  17.08753030393039  6.11315081818182 -1.02485654695470
 1 -5.01428673007301 -7.69892932603260  0.00668713101310
 1 -6.53008743904390 -6.96442352895290  0.98681218871887
 1 -4.86812498109811 -6.64915649124913  1.47926238283828
 8 -7.71599919151915  6.87713421422142 -0.37191497549755
 1 -8.91765006210621  6.52236788168817 -2.00642632543254

