%nproc=4
%Mem=2GB
# td=(NStates=1) iop(3/107=0140000000,3/108=0140000000) iop(3/107=0140000000,3/108=0140000000) CAM-B3LYP/6-31G(d,p) 

TD

0 1
12 -6.73182575467547  0.47007615171517  0.17108472797280
 6 -4.61738884538454 -2.02847126892689  0.30589086608661
 6 -4.20248206360636  2.69156078917892  0.64657753935393
 6 -8.77002970767077  3.22024604870487 -0.08544804650465
 6 -9.38523662126213 -1.60815384498450 -0.74010406910691
 7 -4.50655572747275  0.37199659735974  0.41929096119612
 6 -3.95370263586359 -0.90075978277828  0.56261681708171
 6 -2.58996241484148 -0.74497625682568  0.88182024432443
 6 -2.52983294909491  0.78507865666567  1.04596675917592
 6 -3.88209447234723  1.30806089128913  0.63600837553755
 6 -2.19001528722872  1.20231202710271  2.54475903870387
 6 -1.47214596299630 -1.13059562296230 -0.23563223692369
 6  0.01617349904990 -1.20731243784378  0.35915498899890
 6  0.88538961816182 -1.48447568446845 -0.78840701450145
 8  0.88853892199220 -0.86962957545755 -1.89816080628063
 8  1.91133141974197 -2.19209950855085 -0.40759568206821
 7 -6.65556729892989  2.58279864986499  0.30765451335134
 6 -5.50874143504350  3.32209085228523  0.40905720192019
 6 -5.62968718391839  4.77097678247825  0.59192406100610
 6 -6.95212592599260  5.00337642814281  0.39397598089809
 6 -7.59420112401240  3.59427823622362  0.05815064646465
 6 -4.56581150145014  5.64773220372037  0.91072874087409
 6 -7.58653021432143  6.19506642674267  0.29762928662866
 8 -7.12468638483848  7.20263187978798  0.54322217901790
 7 -8.63962751625163  0.76877773697370 -0.36771942104210
 6 -9.33707738013801  1.99804453975398 -0.36046709900990
 6 -10.62660929122912  1.75664553565357 -0.66984276547655
 6 -10.88082243974397  0.31659256365637 -0.81996285178518
 6 -9.59797146044604 -0.36887505070507 -0.56323840054005
 6 -11.79278605390539  2.77438363146315 -0.59641429222922
 6 -12.09849296979698 -0.23771733403340 -1.11278941264126
 6 -12.19125598769877 -0.94462662786279 -2.59897269196920
 7 -6.85177166006601 -1.44426698799880 -0.15051769626963
 6 -8.03638630023002 -2.23625362206221 -0.36411960996100
 6 -7.61483906900690 -3.59730705310531 -0.31785279537954
 6 -6.46456207740774 -3.68949811071107 -0.01665992659266
 6 -5.87595388408841 -2.34771358585859  0.00981716601660
 6 -8.58731725522552 -4.75215259305931 -0.56264908080808
 6 -5.13212941744174 -4.44522032013201  0.26827485318532
 8 -5.05656740544054 -5.63315385368537  0.03179368596860
 6 -3.91524524992499 -3.40736129532953  0.48584323152315
 6 -3.26999050995100 -3.73366954245425  1.82946265926593
 8 -3.57212245234523 -4.24784151895189  2.94643331313131
 8 -1.99897157205721 -3.59860616591659  1.61834177337734
 6 -0.87581610371037 -3.97582267236724  2.72391681688169
 6  2.96450834363436 -2.58124330123012 -1.34554579867987
 6  3.96135990339034 -1.48159516061606 -1.03347888018802
 6  5.02979373477348 -1.18077494889489 -1.88793499509951
 6  5.13131711551155 -1.79397253195320 -3.26043302550255
 6  5.94201802640264 -0.09510716361636 -1.68594515301530
 6  7.29583827782778 -0.72323810591059 -1.22799953725372
 6  8.33745630593059  0.34385001960196 -0.86823530403040
 6  9.65133822322232 -0.38291521182118 -0.19021732743274
 6  9.42563007930793 -0.95776459115912  1.29104347314732
 6  10.65125745574558  0.61106596079608 -0.16859202080208
 6  12.08181345184518  0.04921622882288  0.31943025422542
 6  13.13604514711471  1.23793106780678  0.14145704410441
 6  14.71329766496650  0.59812309040904  0.58866352845285
 6  14.59399438753875  0.36381410091009  2.34507443144314
 6  15.56779640804080  1.56854175617562  0.20304350965097
 6  17.01932141024102  0.88716394079408  0.39493261936194
 6  18.16350589798980  1.74174136533653 -0.12715286208621
 6  19.64338653975398  1.08834732953295 -0.18343842754275
 6  19.49103890519052  0.30672610291029 -1.31480727192719
 6  20.80448761766177  2.29285070307031 -0.30289538543854
 1 -3.22971360966097  3.49630088108811  0.80953035473547
 1 -9.33587757025703  3.84379346444644 -0.39270290419042
 1 -10.13865635723572 -2.42793319261926 -0.81007383328333
 1 -2.40625314211421 -1.33133075087509  1.63449349764976
 1 -1.76911625022502  1.15098557475748  0.51538799219922
 1 -1.35508689238924  0.57317563196320  2.91082179327933
 1 -1.83669184308431  2.39888846524652  2.37331344914491
 1 -2.90139247174717  1.01963984928493  3.05360122922292
 1 -1.72236125642564 -2.13270454345435 -0.61164895169517
 1 -1.64074924392439 -0.46817829072907 -1.06333612441244
 1  0.53645164346435 -0.32097353065306  0.59452531773177
 1  0.23864014421442 -1.81964829862986  1.42653288538854
 1 -3.94633916431643  5.70943877177718  0.36676163386339
 1 -4.98122840344034  6.70430310621062  0.76309321542154
 1 -4.03673470167017  5.63458241924192  1.92958073037304
 1 -8.73899691379138  6.22904801400140  0.04612823702370
 1 -12.16368592219222 -1.26388725622562 -0.51542596979698
 1 -13.08162437743774  0.34156055585559 -0.82960059645964
 1 -13.25646346944695 -1.61455357075708 -2.66156327342734
 1 -11.91607857165717 -0.31405398389839 -3.51221339083908
 1 -11.61489831423142 -1.94122743974397 -2.80218682608261
 1 -9.04290347364737 -4.44960151575158 -1.43036526452645
 1 -8.08368358295830 -5.65558557115712 -0.60096974887489
 1 -9.32993027302730 -5.06353831503150  0.16299090859086
 1 -3.27269685108511 -3.41304502940294 -0.64715302210221
 1  3.27456907230723 -3.59699697349735 -1.23797951505150
 1  2.86513080188019 -2.45469138413841 -2.50568080338034
 1  3.76253358105811 -0.89739248764877 -0.19586598499850
 1  4.11686474347435 -1.89085255775578 -3.81869198419842
 1  5.73650722912291 -1.29738841424142 -4.11676290019002
 1  5.40294412181218 -2.88452106640664 -3.25016920072007
 1  5.91361178307831  0.46337167456746 -2.52342495969597
 1  5.56995210461046  0.59393494129413 -0.62322658605861
 1  7.19065024392439 -1.39608780588059 -0.49384766316632
 1  7.41447684608461 -1.79786857715772 -2.03695317121712
 1  8.69977210861086  0.81752234703470 -1.68550133543354
 1  7.89283778187819  0.78444363256326 -0.31045533713371
 1  9.99110155725572 -1.36425386908691 -0.66643380098010
 1  9.10163240754075 -2.04900371607161  1.36414477527753
 1  10.48254432383238 -1.30693457465747  2.20472236363636
 1  8.57957116871687 -0.33113433583358  1.81944324942494
 1  11.05716935473547  1.14650741064107 -1.20316748834883
 1  10.42008175477548  1.57264614021402  0.41366524682468
 1  11.99629717191719 -0.29516195569557  0.88415209850985
 1  12.33191534553455 -0.97499572017202 -0.42154515201520
 1  13.42084695469547  1.84115366036604 -1.05639454405441
 1  12.70961300610061  2.27963221452145  0.57039282868287
 1  14.73070449624963 -0.39577709370937  0.09249105790579
 1  14.06117601750175  1.50007040254025  2.95811858485849
 1  14.05374264776477 -0.77080475237524  2.73392089018902
 1  15.83202023512351 -0.14163774687469  3.03550002770277
 1  15.30393152805281  1.73034302770277 -1.02154212891289
 1  15.43016704930493  2.55480501600160  0.81102942614261
 1  17.19670098519852  0.53968713931393  1.56433662036204
 1  17.37579510371037  0.15304347354735 -0.28758013541354
 1  17.72315732283229  1.98088463626363 -1.28913190149015
 1  18.19109910601060  2.97034094099410  0.57685435593559
 1  19.66561912311231  0.69853269946995  0.70216356715672
 1  19.20508882688269  0.88374342394239 -2.10981310651065
 1  20.23804809480948 -0.08041984378438 -1.22928706210621
 1  18.86953968096810 -0.43715143354335 -1.36526460116012
 1  20.63354013261326  3.04632421152115  0.66945769936994
 1  21.80190793109311  1.58482506520652 -0.18112082708271
 1  20.94711136403640  2.78831631883188 -1.57196199249925
 1 -0.37690331543154 -4.61301405080508  1.88459680768077
 1 -1.56613629462946 -4.46764403810381  3.66564720132013
 1 -0.42559657295730 -3.31330980808081  3.22799695289529
 8 -11.62213058735874  3.89325412461246 -0.22923473717372
 1 -12.51470198169817  2.53416465656566 -0.88594919991999

