%nproc=4
%Mem=4GB
# td=(NStates=1) iop(3/107=0140000000,3/108=0140000000) iop(3/107=0140000000,3/108=0140000000) CAM-B3LYP/6-31G(d,p) 

TD

0 1
12 -5.59713121972197  1.32864773907391  0.15751435663566
 6 -5.00395078227823 -2.17190565386539 -0.38910577737774
 6 -3.42846163526353  1.09179946474647  2.82064743804380
 6 -6.19900869656966  4.54185744994499  0.66881709050905
 6 -7.96926269336934  1.14767561826183 -2.32069974347435
 7 -4.35381963526353 -0.22982117391739  1.03283462226223
 6 -4.26959048654865 -1.53544724632463  0.55302765236524
 6 -3.20584370887089 -2.35758906170617  1.44699906360636
 6 -2.88943211421142 -1.39563245414541  2.60341689778978
 6 -3.55327275467547 -0.10136276397640  2.22083666886689
 6 -3.48822186158616 -1.91002444384438  3.94327702710271
 6 -1.95803099629963 -2.63417082638264  0.65631093659366
 6 -0.93068471197120 -3.57208478907891  1.42446603460346
 6  0.21952705320532 -3.98382222292229  0.56275447014701
 8  0.52573263756376 -3.42185949954996 -0.44982121632163
 8  0.93773061876188 -4.77767738503850  1.21538614591459
 7 -4.94204502080208  2.63418279517952  1.43380361206121
 6 -4.00476256605661  2.33480090179018  2.49606020932093
 6 -3.74944444814482  3.57378588078808  3.15387594379438
 6 -4.50804135683568  4.53433496179618  2.60923019431943
 6 -5.28080418461846  3.92166026122612  1.53878997129713
 6 -2.81074643774377  3.74892226802680  4.29341353075308
 6 -4.50972750335033  6.00817823832383  2.73666317111711
 8 -3.91121116911691  6.54441232923292  3.80148404830483
 7 -6.88386218611861  2.66569646544654 -0.64115577187719
 6 -6.90854356915692  3.96419603680368 -0.41030271897190
 6 -7.78458364476448  4.64815153995399 -1.19117322682268
 6 -8.44441389468947  3.70835776567657 -2.09074801920192
 6 -7.68173706420642  2.42639864866487 -1.72774872137214
 6 -8.27055004590459  6.07351726112611 -1.18422793159316
 6 -9.38505286858686  3.81071146934693 -3.19049368216822
 6 -8.63545499919992  4.17607575377538 -4.53224962896290
 7 -6.29400781978198 -0.09259427712771 -1.12168726072607
 6 -7.33854338393839 -0.03545961456146 -2.08661287198720
 6 -7.61661916911691 -1.36284798839884 -2.61186370897090
 6 -6.69623917271727 -2.25789536133613 -2.09178534423442
 6 -5.98657707310731 -1.34639820492049 -1.06878300870087
 6 -8.62436789458946 -1.67674780078008 -3.66906380258026
 6 -6.13357702480248 -3.63502908680868 -1.97039059415942
 8 -6.64453884938494 -4.57241493989399 -2.62630889598960
 6 -5.14855341744174 -3.57882593519352 -0.85246756655666
 6 -5.44447192459246 -4.75506094719472  0.14142781458146
 8 -5.69796556815682 -4.44090309840984  1.38033439683968
 8 -5.26173587178718 -5.87237843424342 -0.40135327992799
 6 -5.53211077527753 -6.98554040734073  0.54294612441244
 6  2.22608358155816 -5.09682080228023  0.68740269466947
 6  3.30553508850885 -4.13158331923192  0.95502340214021
 6  3.97029641984198 -3.26242911301130  0.22425606060606
 6  3.73504784368437 -3.27251219251925 -1.42672217671767
 6  5.11745817161716 -2.43884893249325  0.68527232603260
 6  6.50311518281828 -2.73644656985699  0.11492295969597
 6  7.65538086168617 -1.77204656015602  0.58900459095910
 6  9.00552137343734 -1.91270610421042 -0.10987877037704
 6  9.63113949564957 -3.31911255165517  0.07956449874987
 6  9.89032961206121 -0.83213345074507  0.33233574907491
 6  11.27686498889889 -0.75671527842784 -0.44587335353535
 6  12.17487517611761  0.41769639713971  0.10630747834783
 6  13.59511196699670  0.51946681658166 -0.58213297649765
 6  14.53421172017202 -0.66210561316132 -0.15045919681968
 6  14.30373631323132  1.83561973357336 -0.27404665946595
 6  15.53253744414441  2.19976800500050 -0.91781677667767
 6  15.96601918631863  3.53074782758276 -0.55589620282028
 6  17.37260250935094  3.90065790739074 -1.31442537773777
 6  17.25883847354735  4.06074096579658 -2.83011523572357
 6  18.02153155925592  5.21382664796480 -0.73534299319932
 1 -2.91085680848085  1.21304557995800  3.67847831623162
 1 -6.42258023682368  5.45674105450545  0.80348934063406
 1 -8.77379778697870  1.06314661756176 -3.03376885568557
 1 -3.62698376317632 -3.40902621802180  1.70842890369037
 1 -1.86146327022702 -1.20897855945595  2.95638691479148
 1 -2.95623540264026 -2.99285244644464  4.05586913091309
 1 -3.33079387208721 -1.09163906830683  4.84880691049105
 1 -4.61642415411541 -1.95221430233023  4.00295424592459
 1 -2.12997831153115 -3.14750426772677 -0.25057568136814
 1 -1.33802163456346 -1.80738985528553  0.15980410201020
 1 -0.88073350685068 -3.02825412101210  2.43014723342334
 1 -1.35621034263426 -4.55185231643164  1.69355115311531
 1 -1.80554066786679  3.39754927932793  4.01614752445245
 1 -2.51314230433043  5.01604881088109  4.54209046674667
 1 -2.95831882688269  3.16205720322032  5.00927593359336
 1 -5.14870793469347  6.58746294069407  2.18761408280828
 1 -10.02275140864086  2.95150580768077 -3.32256550825082
 1 -10.09661045894589  4.69341318541854 -3.01451174187419
 1 -9.09792959275928  4.31776019001900 -5.57518272057206
 1 -8.05276478587859  5.20657040244024 -4.45912586758676
 1 -7.98898874787479  3.42418177697770 -4.84548447324732
 1 -8.83621121072107 -0.72997354025403 -4.60032103040304
 1 -8.25680666366637 -2.62636604170417 -4.28638127512751
 1 -9.69336941644164 -1.91885870927093 -2.97843475017502
 1 -4.25140249764977 -4.06581140774077 -1.30387367426743
 1  2.67479861286129 -5.97829577257726  1.14067002390239
 1  2.33582432583258 -5.42222919901990 -0.21517496709671
 1  3.72513463576358 -4.15985526732673  2.21369637723772
 1  2.77221220792079 -3.52297791889189 -1.66929947094709
 1  4.15163977727773 -2.23957751705171 -1.84936740724072
 1  4.50577275127513 -4.06292002120212 -2.04649357525753
 1  4.92460250115012 -1.45421184518452  0.51133301680168
 1  5.16484501180118 -2.33263489588959  1.83805868616862
 1  6.41472899959996 -3.92729592169217  0.23145102910291
 1  6.43146330673067 -2.16553416241624 -0.98981957745775
 1  7.20698963026303 -0.78170149524952  0.25490273577358
 1  7.72226432933293 -1.70910749384939  1.67878226352635
 1  8.74609871917192 -2.00803907910791 -1.20901423952395
 1  8.92308682738274 -4.27793656505651 -0.11809560196020
 1  10.51577091789179 -3.37254145624563 -0.53494360786079
 1  9.83223228462846 -3.48355944744474  1.14989543224322
 1  9.33042219281928  0.23431915811581  0.06350171397140
 1  10.02394249174917 -0.92057859175918  1.39052859285929
 1  11.83071821312131 -1.75535556745675 -0.39147352055206
 1  11.03573966066607 -0.77711061596160 -1.52226355995600
 1  11.58451948544855  1.27521195039504 -0.22781233643364
 1  12.28733355665566  0.44107529892989  1.07847612781278
 1  13.37625442614261  0.44481891419142 -1.78529076777678
 1  14.92535187348735 -0.64964317701770  0.81037671767177
 1  14.11291686268627 -1.63083209950995 -0.30701702320232
 1  15.47703869226923 -0.63840703890389 -0.82652954545455
 1  13.53161135533553  2.51778639773977 -0.50371215891589
 1  14.54742144244424  1.96653694289429  0.94008122202220
 1  16.51237289308931  1.58780739343934 -0.55111160186019
 1  15.55721130453045  2.11350526332633 -1.88461984168417
 1  15.24166557115712  4.31497687568757 -1.08007000510051
 1  16.07495026512651  3.84588122952295  0.60677057745775
 1  18.12492617401740  2.97030852205221 -1.17028610821082
 1  16.56042676307631  4.87195372427243 -3.14133649344934
 1  18.21597752125212  4.25738525182518 -3.36923152825283
 1  16.70534073427343  3.08906997699770 -3.21112914751475
 1  18.05349139633963  5.43292450995100  0.31417308150815
 1  18.95375289758976  5.36533068526853 -1.27080399479948
 1  17.35952750365037  5.99330883398340 -0.96772083338334
 1 -5.13730903230323 -7.83936336943694 -0.20068360606061
 1 -6.61112554285429 -6.86638372497250  0.81203471097110
 1 -4.75563373197320 -6.80684225982598  1.34021847844785
 8 -7.76480407200720  6.80086658745875 -0.43535131913191
 1 -9.14006230333033  6.31601724662466 -1.89117480028003

