%nproc=4
%Mem=2GB
# td=(NStates=1) iop(3/107=0140000000,3/108=0140000000) iop(3/107=0140000000,3/108=0140000000) CAM-B3LYP/6-31G(d,p) 

TD

0 1
12 -7.06895946804680  0.56028517261726  0.07002462196220
 6 -4.46387349384938 -1.90332875467547  0.34814509150915
 6 -4.51095291069107  2.93684531763176  0.89868274987499
 6 -9.22319502420242  3.16715073917392 -0.12156165786579
 6 -9.34085218281828 -1.82571560116012 -0.73074313301330
 7 -4.72054712661266  0.40427982568257  0.39695872797280
 6 -3.90342760836084 -0.74498420522052  0.65593614901490
 6 -2.42323574217422 -0.42267402660266  0.91998406070607
 6 -2.35930589638964  1.29541969076908  1.24428659115912
 6 -4.01612787568757  1.55940602580258  0.79229400410041
 6 -2.06349263496350  1.49236103200320  2.69502406520652
 6 -1.49090783918392 -0.81037360076008 -0.20722939663966
 6 -0.03373149144915 -0.99566127272727  0.56067514101410
 6  0.96139721892189 -1.07534477137714 -0.66741491529153
 8  0.74562463056306 -0.75836844934493 -1.81063205340534
 8  1.90797108370837 -1.90522082068207 -0.27736265876588
 7 -6.81074281648165  2.61024139413941  0.24544829272927
 6 -5.69233979487949  3.32287093029303  0.67597389358936
 6 -6.18849306450645  4.74036372117212  0.71278614721472
 6 -7.54991570497050  4.75789187968797  0.44730131343134
 6 -7.96588829272927  3.52119092749275  0.05540037143714
 6 -5.23724864516452  5.92264969546955  1.03762143014301
 6 -8.35350691199120  6.02012893299330  0.21192071577158
 8 -7.92939685588559  7.24226584318432  0.41888974577458
 7 -8.86270982448245  0.65889674887489 -0.35538818791879
 6 -9.74398807120712  1.73142787808781 -0.39910096239624
 6 -11.14439106940694  1.43227309840984 -0.68953473467347
 6 -11.08070242774277 -0.05783487908791 -0.82526338183818
 6 -9.75649731303130 -0.44809297249725 -0.58852092879288
 6 -12.35696247154715  2.32125831893189 -0.75682033283328
 6 -12.32571569206921 -0.80800436273627 -1.22472060576058
 6 -12.28603546564656 -1.10753291849185 -2.71854464916492
 7 -7.08330481338134 -1.43980654195420  0.08959631513151
 6 -8.10444310591059 -2.27445744244424 -0.50634383238324
 6 -7.50592817791779 -3.69161648404840 -0.64967597769777
 6 -6.11502712391239 -3.55381454235424 -0.10009827042704
 6 -5.97308359705971 -2.10439925442544  0.24166035033503
 6 -8.26782530603060 -4.85679305710571 -0.90754357025703
 6 -4.81557776227623 -4.29532533063306 -0.16328830313031
 8 -4.47294904360436 -5.35520605890589 -0.49834932833283
 6 -3.68184190959096 -3.26088664786479  0.33533818101810
 6 -3.31419493039304 -3.52137831333133  1.78198791179118
 8 -3.74441968206821 -3.96480321512151  2.70886955675568
 8 -1.85145682058206 -3.44314061936194  1.61317125632563
 6 -0.92947146924692 -3.61999708980898  2.74635906110611
 6  3.07391928472847 -2.14621979887989 -1.30071131523152
 6  4.09589335673567 -1.01213821492149 -1.05774130643064
 6  5.13174392979298 -0.79781665306531 -1.84017021862186
 6  5.41043502730273 -1.52160529522952 -2.94648163036304
 6  6.34293811841184  0.14383673077308 -1.43783034153415
 6  7.53057175117512 -0.69639542164216 -0.49801653895389
 6  8.69671223152315  0.38911454605461 -0.32158063856386
 6  9.78626171557156 -0.35046196649665  0.42722441674167
 6  9.43262077837784 -0.92241105580558  1.67286165496550
 6  11.08378070807081  0.69935478967897  0.47811264966497
 6  12.40157542804280 -0.14668336113611  0.67845615681568
 6  13.59211075367537  0.92438971367137  0.63227612601260
 6  15.07349368456846  0.21873515161516  0.82018668076808
 6  15.12039702780278 -0.33788606910691  2.17770769476948
 6  16.17278690709071  1.26699160116012  0.23081628692869
 6  17.51521099919992  0.46066129052905 -0.11171804570457
 6  18.79722927032703  1.46293348454845 -0.62919306610661
 6  19.96316851795180  0.57621611641164 -0.88136822052205
 6  19.71223102440244 -0.18909347904790 -2.01214700590059
 6  21.19121629052906  1.73131454945495 -1.16317141304130
 1 -4.02226286458646  3.77637888888889  1.47204660636064
 1 -10.05532951545154  3.82404148924892 -0.46270990489049
 1 -10.35464795639564 -2.37137753705370 -0.92383520942094
 1 -2.10974349114912 -0.74309192699270  2.13517356565656
 1 -1.49988932753275  1.88438891509151  0.49921637503750
 1 -0.92350373407341  1.03106142054205  2.69953066416642
 1 -2.08289646354635  2.60198877527753  2.79649576737674
 1 -2.77927025952595  1.07389527482748  3.47746361546155
 1 -1.70909993029303 -1.99244051705170 -0.42873065986599
 1 -1.44295946494649 -0.22944441734173 -0.97877766856686
 1  0.30213821212121 -0.12031346464646  1.28804466966697
 1  0.26402268246825 -1.85655198899890  1.31731196329633
 1 -4.16394092449245  5.63995182308231  0.62168712641264
 1 -5.81390167076708  6.82719539543954  1.02726963306331
 1 -4.75766679487949  5.96957591859186  2.21497927022702
 1 -9.46381939603960  5.59661477067707  0.04391801600160
 1 -11.95981553515352 -1.74426529402940 -0.77934236143614
 1 -13.55132134713471 -0.38508210841084 -0.84920255665567
 1 -12.90637846094610 -1.54435655105510 -2.82540965806581
 1 -12.66575353915391 -0.26485906440644 -2.95334750425042
 1 -10.97342416681668 -1.63329664666467 -2.78122472987299
 1 -8.76348553185318 -4.79533608920892 -1.80291251925192
 1 -7.44696991159116 -5.74102411501150 -1.35492514441444
 1 -9.04754203420342 -4.67849981118112 -0.16758214871487
 1 -2.53960354175417 -3.11436516141614 -0.15615392219222
 1  3.32291390679068 -3.24829210301030 -0.73300901800180
 1  2.53231752055206 -2.49514542954295 -2.13135337063706
 1  4.07985531323132 -0.30054280268027 -0.28515491389139
 1  4.57942099909991 -1.22359583208321 -3.66219633463346
 1  6.48286186458646 -1.63581225662566 -3.20673189708971
 1  5.36901072847285 -2.59812242654265 -2.59101328512851
 1  7.06884730663066  0.35547088448845 -2.53295591279128
 1  6.09263437283728  0.90448599639964 -0.95262952635263
 1  7.15567674657466 -1.08693689078908  0.80713243484348
 1  7.87346274467447 -1.96353514381438 -1.28506798269827
 1  8.99901203260326  0.66396699149915 -1.61862464776478
 1  8.44494299239924  1.19156434463446  0.46939264766477
 1  9.98566101320132 -0.94056149984999 -0.06545370297030
 1  8.63456570087009 -1.49403821952195  1.27849621042104
 1  10.45673174257426 -1.32660654185419  2.31194308570857
 1  8.87012022362236 -0.30647186958696  2.47418872397240
 1  11.21705534333433  1.38734149404941 -0.40926809840984
 1  10.77051679827983  1.27013588918892  1.52757663796380
 1  12.26215375757576 -0.50241268076808  1.94592827612761
 1  12.40020217421742 -0.91743996459646  0.06975397789779
 1  13.69052392239224  1.67569711471147 -0.14595349995000
 1  13.48558060286028  1.74234848614862  1.37345313471347
 1  15.03790521632163 -0.43519103510351  0.15726753555356
 1  15.33950385028503  0.76675707120712  2.63556632963296
 1  14.36224349784978 -1.08926659855986  2.77930542864286
 1  16.18402543564357 -0.96725030813081  2.06679315701570
 1  15.80994212911291  1.82926291969197 -0.77048702340234
 1  16.07999203180318  2.08291782728273  1.09141746494649
 1  17.73216453155316 -0.08848567796780  0.71987217391739
 1  17.38029555375537 -0.24546637743774 -0.84954633203320
 1  18.65540054715472  2.05108165596560 -1.30007299559956
 1  19.05115511161116  2.54009791669167  0.00932760326033
 1  20.33345590679068  0.20030287648765  0.09160251105111
 1  19.13817213521352  0.03929897949795 -2.87714984018402
 1  20.83709799979998 -0.22993479527953 -2.49408354175417
 1  19.48042076907691 -1.14480219861986 -1.95753382808281
 1  21.36982376097610  2.42835241434144 -0.39917916431643
 1  21.98886662696270  1.23130971367137 -1.06047876287629
 1  20.82050870377038  2.61971945914591 -1.68275307160716
 1 -0.13092871797180 -4.08554130353035  1.93115146314631
 1 -1.31113079407941 -4.25910318401840  3.35296593319332
 1 -0.55753976727673 -2.74162263936394  3.46094024722472
 8 -12.25411378567857  3.53482828202820 -0.64131594529453
 1 -13.43218372987299  1.80726196629663 -1.32264286928693

