%nproc=4
%Mem=2GB
# td=(NStates=1) iop(3/107=0140000000,3/108=0140000000) iop(3/107=0140000000,3/108=0140000000) CAM-B3LYP/6-31G(d,p) 

TD

0 1
12 -6.84081665376538  0.59881902600260  0.10278789828983
 6 -4.60380748724872 -2.03057147894790  0.53386366336634
 6 -4.22680449584958  2.82303393649365  1.15072795439544
 6 -8.78208091279128  3.20012403650365 -0.38417791949195
 6 -9.31087918551855 -1.67643067266727 -0.70772083078308
 7 -4.64090916281628  0.44849424712471  0.47097612971297
 6 -4.04253151875188 -0.85842554935494  0.73087364276428
 6 -2.51031445004500 -0.57800956015602  0.99779184148415
 6 -2.28003796959696  0.95908605740574  1.27851001350135
 6 -3.80540680358036  1.40065015021502  1.02679745444544
 6 -1.68228451415142  1.27380917681768  2.65546010881088
 6 -1.57465621402140 -1.10992355575558 -0.19812848654865
 6 -0.17880599889989 -1.55280698729873  0.34420349384939
 6  0.77354843404340 -1.77434467136714 -0.76942511631163
 8  0.81203127122712 -0.95226783928393 -1.77983897409741
 8  1.85184547114712 -2.43362366096610 -0.39859478197820
 7 -6.47760950315031  2.66579694969497  0.32868661656166
 6 -5.43060362126213  3.31340998419842  0.85609190539054
 6 -5.87223143834383  4.83078276307631  0.78458332693269
 6 -7.14655536893689  4.88787487798780  0.38373495679568
 6 -7.68399010291029  3.55032384078408  0.08107293869387
 6 -4.76362128242824  5.81550898139814  1.01780944894489
 6 -7.90837239853985  6.04798171827183  0.26468599229923
 8 -7.49366328252825  7.19487110371037  0.46170402720272
 7 -8.74548810231023  0.82717357655766 -0.41319396849685
 6 -9.40144381678168  1.82495723102310 -0.50082113441344
 6 -10.77799442974298  1.81012088318832 -1.07625340654065
 6 -10.93646800430043  0.45512641704170 -1.01340219571957
 6 -9.66472813611361 -0.20025818901890 -0.72322439913991
 6 -11.67522429772977  2.78654484758476 -1.39173382418242
 6 -12.08527164766477 -0.44473803610361 -1.44620275397540
 6 -12.25882274437444 -0.55850801600160 -2.92602539723972
 7 -6.88013449634964 -1.30241280258026 -0.10432307680768
 6 -8.00807346894689 -2.18390838753875 -0.33082628062806
 6 -7.75133271837184 -3.64365168756876 -0.22173318341834
 6 -6.36640226142614 -3.66385554645465  0.15388712811281
 6 -5.99659594829483 -2.20988980348035  0.23029921422142
 6 -8.60330885438544 -4.83325070287029 -0.35208802470247
 6 -5.11995820032003 -4.42427822592259  0.24399242494249
 8 -4.98394014271427 -5.56412695099510 -0.09764925832583
 6 -4.03607733313331 -3.45647620682068  0.55570021722172
 6 -3.41204471537154 -3.86183235873587  1.85065477847785
 8 -3.83337857795780 -4.00678741354135  3.01207987778778
 8 -2.16923859875988 -3.81781808710871  1.82984292349235
 6 -1.54871339343934 -4.06365145524552  3.01805623082308
 6  2.99626151895189 -2.59373455035504 -1.42750399449945
 6  3.95020878827883 -1.63466046714671 -0.95238077037704
 6  4.96095685108511 -1.16506337773777 -1.68237443904390
 6  5.29815379917992 -1.70347348204820 -3.22857984018402
 6  5.89929375397540 -0.21182883578358 -1.20718727722772
 6  7.33363205720572 -0.89193497559756 -0.80837757505751
 6  8.48210077037704  0.25617125172517 -0.46301478197820
 6  9.79764285368537 -0.58209512981298 -0.05657396309631
 6  9.50412792909291 -1.34892370707071  1.39474384318432
 6  10.93761609160916  0.55143999819982 -0.01323648524852
 6  12.33930920142014 -0.11756044884488  0.11493980518052
 6  13.34442598519852  1.09211648634864  0.20895379377938
 6  14.88450478567857  0.35909918801880  0.39040370247025
 6  15.00376536463646 -0.42887516801680  1.95270519451945
 6  15.82875250365037  1.59738464046405  0.01442464776478
 6  17.48538801690169  1.02975820022002 -0.09668654255426
 6  18.31081062846285  2.06216340754075 -0.39329947674767
 6  19.77325952705270  1.54165266006601 -0.45761584528453
 6  19.98609841114111  0.75035046534654 -1.71044683588359
 6  20.61899906880688  2.78354977297730 -0.35732082798280
 1 -3.52233287158716  3.54803605460546  1.72735213691369
 1 -9.58828281078108  4.04866395149515 -0.51842547644765
 1 -10.19809230083008 -2.36573697299730 -0.73712653855386
 1 -2.11495401220122 -1.05432305010501  2.18117816611661
 1 -1.50163950255026  1.68939941614161  0.75752220562056
 1 -1.02764414811481  0.56258457285729  2.74882559365937
 1 -1.21788996289629  2.11719029542954  2.70166628442844
 1 -2.63853618611861  0.77097498279828  3.51234710381038
 1 -2.11060008030803 -1.98326959996000 -0.60955874267427
 1 -1.16529169816982 -0.42098357125713 -1.06025581638164
 1  0.10586858515852 -0.69693112641264  1.21123698889889
 1 -0.38763248304831 -2.62247858165817  0.86713694579458
 1 -3.47834236463646  5.67364519241924  0.71862682038204
 1 -5.17834811541154  6.87793046894689  0.98678558465847
 1 -4.62442347054706  5.68812777377738  2.39422719501950
 1 -8.74493750785079  6.04401951115111 -0.21656803260326
 1 -12.07610716431643 -1.58600946844684 -0.88209263646365
 1 -13.21804801980198 -0.19382298249825 -0.97667530393039
 1 -13.09671749484948 -1.26109822522252 -3.43971108820882
 1 -12.31188815261526  0.59830725222522 -3.56361853135313
 1 -11.38139496389639 -1.00285360236024 -3.23126973437344
 1 -9.77432661596159 -4.48106466206621 -1.13528575657566
 1 -7.83186840144014 -5.95148516111611 -0.64009366126613
 1 -8.86159343934393 -5.12866482768277  0.79262387188719
 1 -3.23575315671567 -3.63658738363836 -0.09390769756976
 1  3.19081069646965 -3.88019529332933 -1.39792550965096
 1  2.87971226002600 -2.45100101510151 -2.23021325662566
 1  4.10387771547155 -0.98489123752375 -0.13691008940894
 1  4.65206826382638 -0.96379985248525 -4.21671178617862
 1  6.76711028942894 -1.74187286268627 -3.22991421532153
 1  4.99235306270627 -2.54955757005701 -3.22685686948695
 1  6.10682110401040  0.57465280268027 -2.15095771297130
 1  5.61863697309731  0.56593214101410 -0.17593185658566
 1  7.80243142204220 -1.74124232133213  0.23915563716372
 1  7.80356575497550 -1.36140493079308 -1.83901337723772
 1  8.65376750815081  0.96207680248025 -1.50967375267527
 1  8.26513501160116  1.05260044824482  0.25745145354535
 1  10.03811625872587 -1.60303774747475 -0.84797195479548
 1  8.48035027932793 -1.77771658735874  1.41031939273927
 1  10.29851592099210 -2.06297017821782  1.91457334873487
 1  9.11606481808181 -0.71963318571857  2.44027533263326
 1  10.81240487828783  1.19093185308531 -1.08864603620362
 1  10.62044179077908  1.28169704530453  1.17583146344634
 1  12.18047558975898 -0.80071251075108  0.94328801210121
 1  12.83511566556656 -0.80885910651065 -0.92365536303630
 1  13.28197306730673  1.75965551055106 -0.75079398399840
 1  12.88966101090109  1.55900015131513  1.00049583898390
 1  15.09259068486849 -0.67054457045705 -0.59559775097510
 1  14.56024592449245  0.32821321682168  2.95808858185819
 1  13.98422569606961 -1.10797846974697  1.99521701980198
 1  16.26588362146214 -1.09458304140414  2.16760323802380
 1  15.60851198609861  2.24750474387439 -0.83273324802480
 1  15.29948398099810  2.33717325282528  0.99965828902890
 1  17.93664497959796  0.56097926852685  1.00649083578358
 1  17.46130365456546  0.41549971917192 -1.07499887728773
 1  17.89176418351835  2.94852139993999 -1.37780076837684
 1  17.95786578267827  2.84235814271427  0.42479915041504
 1  19.89718227942794  0.97255010121012  0.72614596539654
 1  19.55999431743174  1.71919696929693 -2.25979810501050
 1  21.15914020402040  0.36263446164616 -1.60875500890089
 1  19.40461318831883 -0.30284800320032 -1.64211228592859
 1  20.57784456305630  3.15860543964397  0.76499725332533
 1  21.92677041734174  2.73739032173217 -0.31560427542754
 1  20.64599125202520  3.51317880508051 -0.98710350665067
 1 -0.39755538063806 -4.01621437083708  2.81904025202520
 1 -1.80413009400940 -5.26117339103910  3.28650928752875
 1 -1.96065007830783 -3.27891636873687  3.90405455865586
 8 -11.51875024932493  3.95315011421142 -1.19043085678568
 1 -12.68700921242124  2.45602684278428 -1.86596720172017

