%nproc=4
%Mem=2GB
# td=(NStates=1) iop(3/107=0140000000,3/108=0140000000) iop(3/107=0140000000,3/108=0140000000) CAM-B3LYP/6-31G(d,p) 

TD

0 1
12 -6.82943551565157  0.50848999309931  0.16319393889389
 6 -4.74672177867787 -2.05434385618562  0.38675895289529
 6 -4.41946376177618  2.86388802190219  0.88381126272627
 6 -9.20372307700770  3.11624564866487 -0.05699520122012
 6 -9.24822291989199 -1.70245327492749 -0.65134519321932
 7 -4.80479555145515  0.38796819451945  0.40062909500950
 6 -4.03306057165717 -0.81719142594259  0.48162871827183
 6 -2.47182060066007 -0.45650740994099  0.88723078537854
 6 -2.57269723552355  1.11707185598560  1.18014017651765
 6 -4.00291655455546  1.52778286348635  0.84130890559056
 6 -2.13244953065307  1.49427122302230  2.66121068386839
 6 -1.54733348174817 -0.81998456185619 -0.16188486218622
 6 -0.26070418871887 -1.47777948454845  0.33401247474747
 6  0.85704678387839 -1.31988922582258 -0.66039421322132
 8  0.84350441854185 -0.90465307780778 -1.89047003720372
 8  1.85302558915892 -2.05886618521852 -0.15420034253425
 7 -6.61312305450545  2.53928429842984  0.20274402230223
 6 -5.62525308620862  3.17163580678068  0.69758605480548
 6 -6.07110132533253  4.80649033383338  0.73364823342334
 6 -7.31818253165317  4.87244333483348  0.41034761806181
 6 -7.81641334523452  3.43835264366437  0.18935376677668
 6 -4.93388830913091  5.92011944244424  1.03990165816582
 6 -8.15795735703570  6.09961688178818  0.24074359805981
 8 -7.69486340254025  7.28539015561556  0.52154001080108
 7 -8.89008256175618  0.69034989418942 -0.30608325742574
 6 -9.52790646304631  1.91094582988299 -0.46721777407741
 6 -10.85456208650865  1.53835370647065 -0.85890167136714
 6 -11.04787914541454  0.08589949434944 -0.70263111861186
 6 -9.68753041634163 -0.42334049724972 -0.62756483318332
 6 -11.81007778307831  2.59451564466447 -0.98072272307231
 6 -12.32430555105510 -0.55439900220022 -1.19703783748375
 6 -12.22470933303330 -1.02833499869987 -2.64877767246725
 7 -7.07806428932893 -1.40953351465147 -0.12315495999600
 6 -8.02262492409241 -2.28675867256726 -0.44474767276728
 6 -7.61013859895990 -3.69529685208521 -0.61718272837284
 6 -6.24628024922492 -3.66410557145715 -0.15880414101410
 6 -6.01675796449645 -2.22895170967097 -0.01320513621362
 6 -8.44717324082408 -4.75690306810681 -0.80673348924892
 6 -5.14302050655066 -4.40141593969397  0.00004803050305
 8 -4.89873162186219 -5.46515705400540 -0.06442593599360
 6 -3.88688241364136 -3.40148070727073  0.44921956915692
 6 -3.48604211511151 -3.72355853135314  1.75345505850585
 8 -4.31270651075108 -3.95630236503650  2.88164683448345
 8 -2.08477015191519 -3.78759506480648  1.57262720192019
 6 -1.26285480758076 -4.19531462156216  2.87020144534453
 6  3.10723261606161 -2.22566774367437 -1.04733597769777
 6  4.11767553495350 -1.47370437153715 -0.57653318561856
 6  5.27509826522652 -1.20123699509951 -1.41387758935894
 6  5.32816680048005 -1.60482361706171 -2.76969395159516
 6  6.19693351795180  0.00269261636164 -1.07534409290929
 6  7.47540623462346 -0.65494127622762 -0.76671340864086
 6  8.63535609590959  0.40518615321532 -0.63037151765176
 6  9.87097018641864 -0.25782270257026 -0.14644294999500
 6  9.61319883618362 -0.80338915361536  1.30210457925793
 6  11.16719904990499  0.75497035123512 -0.23449861146115
 6  12.44416968746875 -0.16810550335033  0.16554486568657
 6  13.51375291789179  0.79889716441644 -0.09766686828683
 6  14.95290162536254  0.19412269036904  0.35363002510251
 6  15.06729171727173 -0.02350463096310  1.92252217621762
 6  16.01521114951495  1.33900880288029 -0.01915871057106
 6  17.50609008710871  0.72101732613261 -0.09843671757176
 6  18.53942348974898  1.72013920512051 -0.40807095389539
 6  20.03456565766577  1.15515401020102 -0.37264734843484
 6  20.35580538183818  0.22215764606461 -1.54236002720272
 6  21.07129429832984  2.34057547554755 -0.18742383828383
 1 -3.66153679197920  3.40563181418142  1.30151955365536
 1 -9.61099508200820  3.92345143024302 -0.20616425032503
 1 -10.13034552615261 -2.52752315161516 -0.65714854075408
 1 -2.12873539033903 -1.20586820462046  1.60616066436644
 1 -1.76200553915392  1.54808528472847  0.52280873427343
 1 -1.08541992569257  1.10090840524052  2.80686139723972
 1 -1.81612978687869  2.82663123952395  2.70813693149315
 1 -2.95965829832983  1.09250713601360  2.99433530263026
 1 -2.04076309660966 -1.56179745274527 -0.81366915371537
 1 -1.33488865786579  0.11253978107811 -0.69747953875388
 1 -0.07701970367037 -0.82106353965396  1.15756162136214
 1 -0.53214693449345 -2.57091342514251  0.81255148724872
 1 -4.02227675807581  5.78566639453945  0.30805576327633
 1 -5.65897617821782  7.05538821472147  1.11058796489649
 1 -4.53113414161416  5.91683064406441  2.09442721502150
 1 -9.23019603370337  6.01618672787279  0.22982660686068
 1 -12.40707026062606 -1.68081894939494 -0.76855128232823
 1 -13.20252646764676 -0.02673627382738 -0.83045068146815
 1 -13.16939476257626 -1.89586170157016 -2.99779689678968
 1 -11.90611757555756 -0.30803338183818 -3.57187935743574
 1 -11.23509033343334 -1.47051036803680 -2.97133374077408
 1 -9.05222440574057 -4.17373392899290 -1.70498272627263
 1 -7.64422963756376 -5.46761677427743 -1.38993864576458
 1 -9.07866514651465 -5.19234119531953  0.02199680918092
 1 -3.37307688908891 -3.70877460236024 -0.43700200700070
 1  3.61534314971497 -3.54961223502350 -0.94522023912391
 1  2.73800808960896 -1.74717063206321 -2.14106434173417
 1  4.01856918461846 -1.10768351675168  0.41255485708571
 1  4.52741579857986 -0.85091856435644 -3.38362847784778
 1  6.19887346574657 -1.53789246464646 -3.11956318021802
 1  5.27120094749475 -2.75974858915892 -2.84370855465547
 1  6.05538596049605  0.85047038443844 -1.75058767596760
 1  5.91046615601560  0.27320286808681 -0.07563182658266
 1  7.45203638253825 -1.12916111321132  0.24707642924292
 1  7.24624002240224 -1.37391618191819 -1.41962143804380
 1  8.55502763416342  1.05721631643164 -1.65736852215221
 1  8.41075957405741  0.91361654985499 -0.05469976157616
 1  9.99805225232523 -1.08158560226023 -0.72803996159616
 1  8.78259050335033 -1.10643945964596  1.48569693049305
 1  10.43074914431443 -1.50126400760076  1.55199709110911
 1  9.76462967456746  0.20933971157116  2.17353865896590
 1  11.49967360516052  1.21280404030403 -1.51610878247825
 1  10.89224897149715  1.55171404700470  0.03794767506751
 1  12.54821236343634 -0.78459089858986  1.25772945624562
 1  12.36265841984198 -1.45873409400940 -0.52074507200720
 1  13.59748461846185  1.47232677767777 -0.75515442004200
 1  13.36340838563856  1.61010526182618  0.77020280968097
 1  15.24405583138314 -0.85695321132113 -0.42973116431643
 1  15.03251315121512  0.83730412591259  2.65531830483048
 1  14.30306758025803 -0.54721239313931  2.28522602070207
 1  15.94464149724972 -0.78005158825883  2.08538501620162
 1  15.86086722162216  1.94476446984698 -1.29516949164917
 1  15.99360339293929  2.33490302580258  0.60044836803680
 1  18.06511782688269  0.29378254885489  1.22153233993399
 1  17.55144266846684 -0.09660149094910 -0.84965634303430
 1  18.45947095419542  2.02264881268127 -1.24262725102510
 1  18.70827082318232  2.28730263716372  0.39334600510051
 1  20.13379594079408  0.79464231043104  0.53534688548855
 1  20.19025734373437  0.70023507310731 -2.49645177037704
 1  21.29237352735274  0.08300649884989 -1.20689482288229
 1  19.84180690769077 -0.49227694609461 -1.83919199389939
 1  20.89362614121412  3.07620719981998  0.69409016261626
 1  22.28075581588159  1.84744132683268  0.05378266326633
 1  20.90520717361736  2.96649413661366 -1.08954375067507
 1 -0.16752237733773 -4.05009775917592  2.37691603960396
 1 -1.21398107910791 -5.17916519021902  3.23752438903890
 1 -1.51637565086509 -3.29573805090509  3.71606575977598
 8 -11.75174354865486  3.83650845004500 -0.76983879757976
 1 -12.70795130663066  2.50574181428143 -1.35599620462046

