%nproc=4
%Mem=2GB
# td=(NStates=1) iop(3/107=0140000000,3/108=0140000000) iop(3/107=0140000000,3/108=0140000000) CAM-B3LYP/6-31G(d,p) 

TD

0 1
12 -6.80462303440344  0.61519066316632  0.07061468096810
 6 -4.61702880938094 -1.98058648044804  0.44299457645765
 6 -4.38160997639764  2.74333596669667  0.91277415901590
 6 -9.02728543324332  3.20014403850385 -0.29821932363236
 6 -9.45273337093709 -1.84026705630563 -0.64053411211121
 7 -4.78421349324933  0.39474887258726  0.50692972507251
 6 -4.15280254585459 -0.71352105890589  0.70434098949895
 6 -2.65612903150315 -0.42972473167317  0.98231029332933
 6 -2.68578854465447  1.03742389118912  1.29584174667467
 6 -3.98152441534153  1.45866595179518  0.82904767946795
 6 -2.40584687038704  1.52307410331033  2.71191575437544
 6 -1.55946469486949 -0.72249481288129 -0.11700037373737
 6 -0.20020813911391 -1.08990069666967  0.26533560706071
 6  0.76266734593459 -1.01926916381638 -0.74901307510751
 8  0.97878794689469 -0.43673628612861 -1.90793178337834
 8  1.88148843544354 -1.88904920352035 -0.29509443194319
 7 -6.68005974817482  2.54660503050305  0.33017676557656
 6 -5.67213777467747  3.20844948814881  0.51789808600860
 6 -5.96484069926993  4.67786747154715  0.72450731933193
 6 -7.11612232563256  4.85510160066007  0.34788137143714
 6 -7.66380808470847  3.53015182358236  0.13183801520152
 6 -5.02318723902390  5.61441887238724  1.04339200720072
 6 -7.90314187548755  5.99830675077508  0.18985850955095
 8 -7.49585350155016  7.23970558715872  0.39613747054705
 7 -8.69284283778378  0.65504636383638 -0.52036468556856
 6 -9.45536920932093  1.87123185848585 -0.51237228952895
 6 -10.65628225852585  1.40581045214521 -0.86936271747175
 6 -10.97663202070207  0.16497740214021 -0.92990384588459
 6 -9.67394905820582 -0.41423958715872 -0.70778285498550
 6 -11.68086486178618  2.52020821392139 -1.03967861866187
 6 -12.02926604710471 -0.44248781108111 -1.43120125382538
 6 -11.83719058115812 -0.88708087328733 -2.94624741944194
 7 -6.94404088698870 -1.42144470577058 -0.15078772327233
 6 -8.10335299689969 -2.26706670337034 -0.35309850785078
 6 -7.64688227332733 -3.76807412981298 -0.37443845394539
 6 -6.33878950015001 -3.65274443534353 -0.05734399499950
 6 -5.98928521722172 -2.22161097559756  0.03981016531653
 6 -8.70873939743974 -4.98546592439244 -0.62576539243924
 6 -5.30218642314231 -4.49809560766077  0.16703472917292
 8 -5.26671842054205 -5.62296283458346  0.15163567016702
 6 -4.06537026242624 -3.44924548374838  0.49611425862586
 6 -3.28567207810781 -3.77521369686969  1.87891760476048
 8 -3.87756299639964 -4.08436517131713  2.85443411321132
 8 -1.99752142704270 -3.99498580388039  1.78113805300530
 6 -1.21962048414841 -4.22471756185619  3.20256468166817
 6  2.98490038283828 -2.08992416931693 -1.20465170927093
 6  4.05223899129913 -1.14260126122612 -0.87665319761976
 6  5.18087884328433 -0.84018088948895 -1.76103230483048
 6  5.36127011081108 -1.42555569026903 -3.10695767796780
 6  6.19130295489549  0.16630897799780 -1.14411096959696
 6  7.48223691769177 -0.52645842794279 -0.71688842614261
 6  8.63867642794279  0.37151278587859 -0.36775525602560
 6  9.95998908830883 -0.62463938423842  0.04651634593459
 6  9.66860437673767 -1.21565037973797  1.51089545834583
 6  11.06051838183818  0.41257611181118  0.19111394979498
 6  12.45742101260126 -0.14171286408641  0.53526183738374
 6  13.57077862046205  0.89498677337734  0.61040393879388
 6  15.05266160136014  0.16563984208421  0.59626428852885
 6  15.36144113221322 -0.50241252175217  1.88934885888589
 6  15.92207183558356  1.50544544654465  0.29785299059906
 6  17.31538101620162  0.87650287468747  0.08490161626163
 6  18.34852439983998  1.94026121732173 -0.33507365416542
 6  19.73496569766977  1.07184567936794 -0.76884696839684
 6  19.54563436473648  0.41792722302230 -2.19706549774977
 6  20.95288245714572  2.14890630863086 -0.67189228512851
 1 -3.57840847914792  3.79666091709171  0.86495589728973
 1 -9.74693867636764  3.98331741684168 -0.54113774767477
 1 -10.29967245884588 -2.60667106640664 -0.46156898279828
 1 -2.13787630443044 -1.22411002880288  1.85692574087409
 1 -1.75651499009901  1.51929240544054  0.67059351275127
 1 -1.46368775247525  1.33664197859786  3.06155686678668
 1 -2.51811998589859  2.61872044844484  2.71553767156716
 1 -3.04718705120512  0.82181006630663  3.37146301540154
 1 -1.92645166546655 -1.55238651165116 -0.64865265206521
 1 -1.84889005800580  0.15113364046405 -0.75999579037904
 1  0.05332333063306 -0.35804723802380  1.20961682688269
 1  0.29559583978398 -2.03438977277728  0.76962719481948
 1 -4.02028655905591  5.72730055795579  0.61419637733773
 1 -5.45973625422542  6.86520919681968  0.48873577967797
 1 -4.89399042724272  5.72975193619362  2.06874464676468
 1 -8.92553556765677  5.96536164536454  0.15786941114111
 1 -12.38667822142214 -1.36198706620662 -0.99404383158316
 1 -13.08923513851385  0.27362376217622 -1.47721535793579
 1 -12.66501432453245 -1.20212232763276 -3.10734785188519
 1 -11.16642360616062 -0.12793537203720 -3.57045921542154
 1 -11.09739656405641 -2.13234655165517 -3.21421802920292
 1 -8.83912309560956 -4.88023457905791 -1.97959018701870
 1 -8.34618983358336 -5.82211222382238 -0.46044569646965
 1 -9.73023030303030 -4.91214317551755 -0.11880727122712
 1 -3.44307388878888 -3.52737646254625 -0.19632793959396
 1  3.19840145554555 -3.21039831363136 -1.15135085218522
 1  2.56463075187519 -1.72004791979198 -2.31400163546355
 1  4.04248157585759 -0.62577532593259  0.27170077167717
 1  4.14317737473747 -1.00918439093909 -3.46216633163316
 1  6.28727230563056 -0.86683535893589 -3.76409763366337
 1  5.27977180458046 -2.66214882918292 -3.40516470027003
 1  6.47815823772377  0.90837617501750 -2.55495811301130
 1  5.79400450985098  1.07445299309931 -0.22075633903390
 1  7.47020819971997 -1.22663086018602  0.27234895649565
 1  7.65224062246225 -1.41521031133113 -1.20458993489349
 1  8.69668179957996  1.13942453725373 -1.16817960326033
 1  8.09629812791279  1.06720190839084  0.37372308070807
 1  10.19252169926993 -1.11912935663566 -0.61852901050105
 1  8.78394063836384 -1.74661347704770  1.35426378717872
 1  10.49030509990999 -1.61392527372737  1.76473836523652
 1  9.28984219581958 -0.44067528992899  2.16750805590559
 1  11.00832447024703  1.03429618951895 -1.08445561716172
 1  10.91813155975598  1.11968084368437  1.02668654895490
 1  12.38348589078908 -0.64908734823482  1.59144282758276
 1  12.83922607660766 -1.14458267886789 -0.16913991149115
 1  13.69677454745475  1.48825837083708 -0.50084898949895
 1  13.56117816261626  2.01467571887189  1.57553334273427
 1  15.05511693749375 -0.65325284128413 -0.51270946214621
 1  15.38460836073607  0.18614901040104  2.77316008900890
 1  14.84554182768277 -1.59734740664066  2.22928042614261
 1  16.31903893699370 -0.57602118521852  1.81655813351335
 1  15.70229136403640  2.01688168156816 -0.65255523022302
 1  16.08207223982398  1.83317285278528  1.35238356155616
 1  17.78666998209821  0.58840201080108  1.18063825052505
 1  17.44267179137914 -0.19074090489049 -0.82624400180018
 1  18.02445745284529  2.75367191499150 -1.35635862416242
 1  18.41689168526853  2.81032493939394  0.45190186068607
 1  19.95834839603961  0.04551739793979 -0.04647129632963
 1  19.64847316531653  1.09420447004700 -2.92950507570757
 1  20.39517380738074 -0.39179098089809 -2.22048618201820
 1  18.35496822382239 -0.19281700010001 -2.32377045174517
 1  20.99199597819782  2.47676725582558  0.18946970057006
 1  21.85064280458046  1.51895847854785 -0.77807052205221
 1  20.75893254615461  2.95159264646465 -1.34895969226923
 1 -0.35546117121712 -4.10118286768677  2.89707805580558
 1 -1.56526620762076 -5.19807708140814  3.76102673927393
 1 -1.69312332563256 -3.60387886498650  3.74300845404540
 8 -11.69321769606961  3.71269606880688 -0.99011082478248
 1 -12.56905741724172  1.95385662576258 -1.49907051205120

