%nproc=4
%Mem=2GB
# td=(NStates=1) iop(3/107=0140000000,3/108=0140000000) iop(3/107=0140000000,3/108=0140000000) CAM-B3LYP/6-31G(d,p) 

TD

0 1
12 -6.68871144324432  0.63270241434143  0.05285290479048
 6 -4.47688479497950 -2.10820924272427  0.35279555655566
 6 -4.05014683008301  2.84655628872887  0.87148002960296
 6 -8.82448515321532  3.13444746884688 -0.28054755645565
 6 -9.26234433203320 -1.71755478507851 -0.41327138583858
 7 -4.62193726562656  0.29022842054205  0.61815084718472
 6 -3.86978424402440 -0.85932563936394  0.57688824422442
 6 -2.46995041364136 -0.52695445464546  0.95457752005201
 6 -2.53579354515452  0.92106225502550  1.28086024852485
 6 -3.87954421732173  1.39799988518852  0.99538431313131
 6 -2.19830611631163  1.22588438433843  2.50135469826983
 6 -1.42640138853885 -0.98316087948795 -0.16547522122212
 6 -0.06843496179618 -0.82965467206721  0.38427750125012
 6  0.94250532973297 -1.07821505840584 -0.69430760456046
 8  0.89903997209721 -0.28510112261226 -1.67404839503950
 8  1.89133942054205 -2.20502080068007 -0.60665558805881
 7 -6.42920466266627  2.67776814681468  0.33564731263126
 6 -5.37029759065907  3.40618926212621  0.62965926212621
 6 -5.81228544374437  4.86686637143714  0.74525939453945
 6 -7.21367208060806  4.92894898539854  0.31919850315032
 6 -7.56815851975198  3.52653146154615  0.08736356775678
 6 -4.78311323162316  5.95846327682768  0.86644431243124
 6 -7.92190375167517  6.04883180328033  0.10810033373337
 8 -7.62904682088209  7.17753937053705  0.44138199499950
 7 -8.75022857635764  0.76586744594459 -0.50148279737974
 6 -9.47882155455546  1.85876061136114 -0.42629368166817
 6 -10.82411904220422  1.66199607070707 -0.89529531073107
 6 -10.89931428892889  0.20875177957796 -0.99118997449745
 6 -9.65226688998900 -0.31776994019402 -0.67618969566957
 6 -12.04609138443844  2.60117631073107 -1.01366601740174
 6 -12.08006112661266 -0.64810837313731 -1.27926606030603
 6 -12.07498436053605 -0.94356652185218 -2.61233402810281
 7 -6.91931841474147 -1.51287384868487  0.02221957745775
 6 -8.01775443704370 -2.21499149584959 -0.24122732073207
 6 -7.57781536663666 -3.72963028542854 -0.25063607370737
 6 -6.28307392859286 -3.76620578147815 -0.07365562616262
 6 -5.81580786948695 -2.27333614811481  0.17068325262526
 6 -8.49970849434943 -4.76432381018102 -0.46298911481148
 6 -4.84655085958596 -4.48359415751575  0.10096812251225
 8 -4.80668241694169 -5.72561309960996  0.04494500110011
 6 -3.85284901030103 -3.45312587178718  0.48966361356136
 6 -3.24981849274927 -3.84538071357136  1.89960967396740
 8 -3.90426566666667 -3.95056179097910  2.88005667546755
 8 -1.80226190109011 -3.68805511081108  1.78738867806781
 6 -1.19346786888689 -4.13479856995700  2.99155358055806
 6  2.83907580038004 -2.38489366626663 -1.71191243534353
 6  4.05374914231423 -1.46217321842184 -1.24751028332833
 6  4.98802955835584 -0.91830870227023 -1.91313751535153
 6  4.94376836063606 -1.10924405910591 -3.48237521972197
 6  6.07895171977198  0.09044139123912 -1.36339289778978
 6  7.21304999899990 -0.77753353545355 -0.97346408370837
 6  8.29832239253925  0.07900353495350 -0.40752923342334
 6  9.73281637103710 -0.44054097439744  0.15967766206621
 6  9.42757027332733 -1.28218703340334  1.46986135493549
 6  10.80861319131913  0.65131998619862  0.64343918231823
 6  12.18926419691969 -0.13348204100410  0.45827413861386
 6  13.32877442004200  0.98499577427743  0.65076797519752
 6  14.72231856705671  0.19291256935694  0.42050671277128
 6  15.06088107620762 -0.45347762826283  1.72407233123312
 6  15.98937856625663  1.15459036103610  0.22262546784678
 6  17.30397987608761  0.61880710511051  0.06651977807781
 6  18.38048759615962  1.70080727192719 -0.18936908370837
 6  19.61064326542654  1.15251374617462 -0.60463054675468
 6  19.43179298059806  0.69445487578758 -1.84856064726473
 6  20.61359852875288  2.23528494649465 -0.45042013791379
 1 -3.13945458375838  3.44776602760276  0.85249465116512
 1 -9.77078106060606  4.00991007610761 -0.44492812671267
 1 -9.98665115671567 -2.40416081538154 -0.32715554145415
 1 -2.29407192399240 -1.18951656945695  1.72862291059106
 1 -1.72263160176018  1.52374285048505  0.74377083048305
 1 -0.89715109880988  1.00734904930493  2.77900861196120
 1 -2.32809098299830  2.33430200660066  2.29908602640264
 1 -2.69489182168217  0.88381626692669  3.15757162626263
 1 -2.13951297159716 -1.96574784778478 -0.12158994579458
 1 -1.74624979397940 -0.30920239313931 -0.72645243604360
 1 -0.01322332403240 -0.31279271257126  0.95412127732773
 1 -0.07701142094209 -1.61696803060306  0.85564579667967
 1 -3.92646717711771  5.49493732163216  0.11930688838884
 1 -4.72558283888389  7.02976565246525  0.28305521162116
 1 -4.62156318451845  5.98491745274527  2.22749052135214
 1 -8.74112712681268  5.97733284248425 -0.40873724952495
 1 -12.09242879647965 -1.62960382788279 -0.91540596779678
 1 -12.97912412741274 -0.10916451665167 -0.71165880228023
 1 -12.96062388548855 -1.44573668906891 -3.21560867796780
 1 -12.20107707150715 -0.03098567706771 -3.02874504400440
 1 -11.14285110951095 -1.13872718971897 -3.11318792619262
 1 -8.98768795209521 -4.67537409300930 -1.42064429242924
 1 -8.14138935353535 -5.57663767636764 -0.60198985088509
 1 -9.23445072507251 -4.64550651185118  0.28320292979298
 1 -3.01710129152915 -3.44971869676968 -0.09813812061206
 1  3.05968758415842 -3.43091036483648 -1.69561527862786
 1  2.31920620942094 -2.23180909590959 -2.42662289758976
 1  3.88869619731973 -1.61433418181818 -0.08091448984898
 1  4.15560861786179 -0.64882835533553 -4.27165728072807
 1  5.75587916631663 -0.83219189458946 -3.67570879477948
 1  5.16674050145014 -1.85082769706971 -3.89373355715572
 1  6.26552697459746  1.01906724412441 -2.14450706790679
 1  5.39356446584658  0.60409595739574 -0.41962622602260
 1  7.03965514441444 -1.59917811491149 -0.40375865426543
 1  7.56846224462446 -1.17605639593959 -1.73474295019502
 1  8.75008714011401  0.80268086288629 -1.36434922022202
 1  7.65042354045405  1.07912310051005  0.24174988338834
 1  10.44091653875387 -1.00392783648365 -0.85171232883288
 1  8.62187443174317 -2.12269108480848  1.39198755955596
 1  10.21259732913291 -2.02271615281528  1.95345723712371
 1  9.44820803240324 -0.63630485288529  2.35113641874187
 1  10.71408504630463  1.25989874977498 -0.14168133973397
 1  10.47287703430343  1.17258613421342  1.33875775607561
 1  12.43116065826583 -0.75239767926793  1.45591927522752
 1  12.47413956795680 -0.53713193379338 -0.48105110261026
 1  13.17724259425943  1.89427897289729 -0.24413331793179
 1  13.14677672247225  1.81108535983598  1.77033282268227
 1  14.63817524332433 -0.64313182918292 -0.17940613181318
 1  15.38957885778578  0.30745114061406  2.48341111411141
 1  14.28441571507151 -1.08373604550455  2.27154465256526
 1  15.92624965806581 -1.11199478257826  1.29169564726473
 1  15.53698483338334  1.83814380778078 -0.44785476017602
 1  16.05743977657766  1.83796333183318  0.95872419561956
 1  17.48988030313031  0.11639481008101  0.84554474117412
 1  17.22449997419742 -0.10675250605061 -0.74799617701770
 1  18.19317432453245  2.21523807160716 -0.89422241054105
 1  18.44136413251325  2.21815572247225  0.50856752725273
 1  19.76479904110411  0.71315416161616  0.09169252005200
 1  19.60414873287328  1.80167521712171 -2.49057118231823
 1  20.52538682868287  0.00729892809281 -1.96840097349735
 1  18.49118184518452  0.22227450905091 -2.10981905660566
 1  20.62031881048105  3.02741232033203  0.25315606920692
 1  21.93553129342935  1.68632521522152 -0.39355207020702
 1  20.59027568046805  3.09849733693369 -1.20394519081908
 1 -0.30519614471447 -4.30329307870787  2.46976532453245
 1 -1.48057773877388 -4.95619289298930  3.24313495009501
 1 -1.35014902820282 -3.52973145024503  3.84185833903390
 8 -11.92580095439544  3.75056985618562 -0.83300511421142
 1 -12.94052456395640  2.24962620272027 -1.21540214521452

