%nproc=4
%Mem=4GB
# td=(NStates=1) iop(3/107=0140000000,3/108=0140000000) iop(3/107=0140000000,3/108=0140000000) CAM-B3LYP/6-31G(d,p) 

TD

0 1
12 -5.60828233483348  1.20628550285029  0.15266387158716
 6 -5.04344473167317 -2.06500496379638 -0.36385325212521
 6 -3.39002779187919  1.26479676447645  2.72324769806981
 6 -6.08063685938594  4.58467173137314  0.60381058985899
 6 -8.05505127222722  1.15229608030803 -2.33804147764776
 7 -4.29184343764376 -0.20664885668567  0.98038937773777
 6 -4.18257178467847 -1.54155785738574  0.61202355195520
 6 -3.18268139263926 -2.24892819561956  1.55111947564756
 6 -2.90988415941594 -1.18952184308431  2.70374693079308
 6 -3.47216464386439  0.06490386268627  1.99731431663166
 6 -3.22873591299130 -1.56972041344134  4.00142284168417
 6 -1.97787298049805 -2.75283269256926  0.63178848434843
 6 -0.99481112461246 -3.66873445404540  1.37193078107811
 6  0.25962106260626 -3.97086092679268  0.41460965566557
 8  0.42412247654765 -3.58316563016302 -0.68766500070007
 8  1.00390723642364 -4.83903352065207  1.07254186148615
 7 -4.93296411271127  2.63459283618362  1.46963719541954
 6 -3.90487257705771  2.50740816251625  2.28192879617962
 6 -3.70864036773677  3.75514401660166  3.05015557175718
 6 -4.55329588228823  4.63960548884889  2.56571584288429
 6 -5.23460956515652  3.99118721392139  1.46312240454045
 6 -2.76344170727073  3.93937131293129  4.26986117551755
 6 -4.57388391899190  6.06470389088909  2.89420892569257
 8 -4.03584363236324  6.56558444644464  3.86450034993499
 7 -6.80161396129613  2.65774567036704 -0.72893454975498
 6 -6.89069178397840  3.96006562376238 -0.34652634133413
 6 -7.92089727612761  4.56755348014801 -1.18106221572157
 6 -8.50793024632463  3.58171510141014 -1.95773471787179
 6 -7.78104699519952  2.34400040884088 -1.70513646014601
 6 -8.35304829572957  5.96842675207521 -1.06102561136114
 6 -9.44447881118112  3.81616201440144 -3.07612224502450
 6 -8.70920237393739  4.24427257345735 -4.47116352035204
 7 -6.44949336833683 -0.11239625732573 -1.02115720772077
 6 -7.43765329492949 -0.00123619221922 -2.02965717641764
 6 -7.60317782498250 -1.30314201780178 -2.69983250585058
 6 -6.74753430223022 -2.17240681248125 -2.04252041774177
 6 -5.96214462986299 -1.36678024312431 -1.14229035943594
 6 -8.62449790759076 -1.69388951495150 -3.78795569176918
 6 -6.28172183928393 -3.50659624352435 -2.04110766586659
 8 -6.51986638213821 -4.57681537993799 -2.56103236833683
 6 -5.04982354445445 -3.54440249284928 -0.80438275807581
 6 -5.17977545494549 -4.63924936603660  0.19834350615061
 8 -5.71075684728473 -4.41763077117712  1.33611997539754
 8 -4.95081477967797 -5.86655785218522 -0.30904404900490
 6 -5.24084164836484 -6.89289114241424  0.57142897269727
 6  2.31011198439844 -5.22356347654766  0.47848180258026
 6  3.34680921592159 -4.28613877477748  0.90696859665967
 6  4.08899829002900 -3.41178404850485  0.11595523052305
 6  3.76610094899490 -3.31811675297530 -1.36372587708771
 6  5.11138756455646 -2.56131117871787  0.61553535233523
 6  6.51437630893089 -2.86983990919092  0.02690415781578
 6  7.65201052465247 -1.98479783528353  0.62903859435944
 6  9.05498631993199 -2.10321515511551  0.02531474897490
 6  9.59417579927993 -3.45861650205021  0.37434397669767
 6  9.91517209630963 -0.93786402380238  0.37405992149215
 6  11.34287158955896 -0.98347795469547 -0.25962472867287
 6  12.15818350695069  0.25448007550755  0.18327517511751
 6  13.57917037283728  0.49701457135714 -0.52862762596260
 6  14.51194949394939 -0.70819022162216 -0.42604675557556
 6  14.04885082468247  1.83563973557356 -0.10771002580258
 6  15.42245643604360  2.20804883308331 -0.91835683068307
 6  15.96201878627863  3.62738749154915 -0.55322593579358
 6  17.21207645674567  3.99475731733173 -1.27549148434843
 6  17.05263785348535  4.23896878857886 -2.81186341054105
 6  17.87050645674567  5.30165543084308 -0.76492595149515
 1 -2.74454017681768  1.32038631403140  3.52665313371337
 1 -6.38317629642964  5.59135451585158  0.80060905260526
 1 -8.73883429062906  1.14686498939894 -3.03504898369837
 1 -3.68370943574357 -3.11116643204320  1.81819988078808
 1 -1.81815893979398 -1.02251991359136  2.67923920002000
 1 -2.61121090019002 -2.56516967816782  4.19801334533453
 1 -2.99883067576758 -0.74300420482048  4.81326335613561
 1 -4.31114362606261 -1.97365644654465  3.81648559905991
 1 -2.38934424812481 -3.34708422572257 -0.24706533033303
 1 -1.27938577097710 -1.94802391869187  0.20762888448845
 1 -0.55454088758876 -3.16575787138714  2.13740795949595
 1 -1.40122484408441 -4.61838897009701  1.84248604660466
 1 -1.88680879467947  3.54606413081308  3.77862377207721
 1 -2.92685367546755  4.94162136813681  4.65980223792379
 1 -3.06550954595460  3.16027702520252  4.96916192219222
 1 -4.99887295119512  6.89581377577758  2.26852217361736
 1 -10.11516064956496  2.79850050715071 -3.31967521922192
 1 -10.14093489138914  4.56687053115312 -2.61788207890789
 1 -9.54074387418742  4.29386780078008 -5.28393359565957
 1 -8.46103561296130  5.43484322972297 -4.38732868786879
 1 -7.79159900890089  3.55914527332733 -4.72994291909191
 1 -8.33538112771277 -1.31636217911791 -4.70477147544754
 1 -8.62444342734273 -2.74984838993899 -3.81883452045204
 1 -9.68484856435644 -1.43751057445745 -3.37509441614161
 1 -4.13996135353535 -3.65032985958596 -1.52779606650665
 1  2.39432056505651 -6.30450839383938  0.95299125602560
 1  2.37890863426343 -5.35630260636064 -0.65149859945995
 1  3.64318644094409 -4.22111139293929  1.98331333893389
 1  2.63110809750975 -3.40196581768177 -1.43267580858086
 1  4.02061667496750 -2.49866342564256 -1.84505697619762
 1  4.32671484548455 -3.99889361856186 -2.03372229812981
 1  4.72587262816282 -1.61093751775178  0.46720860436044
 1  5.05051357865787 -2.75440707310731  1.54512939323932
 1  6.55981350805081 -4.03564675677568  0.25288317231723
 1  6.60473063346335 -2.56682429142914 -0.96224682018202
 1  7.53525245654566 -0.88584190929093  0.32395964146415
 1  7.62403450635064 -2.20824740784078  1.62131651695170
 1  8.96725083438344 -2.02677095229523 -1.08210154825483
 1  8.92446696539654 -4.22638140954095 -0.09234302670267
 1  10.58552789358936 -3.72899710181018  0.06889677617762
 1  9.66157521892189 -3.46385747724772  1.55854629732973
 1  9.47149630023002  0.00043576977698  0.16889225302530
 1  10.08922902040204 -0.89629616351635  1.48139767976798
 1  11.93014815611561 -1.80432046394639  0.20111573837384
 1  11.07282336903690 -1.07128003290329 -1.22753408700870
 1  11.54824585808581  1.12463689288929  0.17599804460446
 1  12.34708953225323 -0.10340914951495  1.22110039023902
 1  13.35673247394739  0.60106453875388 -1.65445768446845
 1  14.54982432073207 -0.81212942564256  0.76592227222722
 1  14.02193776477648 -1.59314833113311 -0.86886320782078
 1  15.42422341074107 -0.60195339353935 -0.67898479097910
 1  13.42860105430543  2.77380199929993 -0.29393118081808
 1  14.18603530383038  1.90631092029203  0.88143535743574
 1  16.13677533333333  1.27521613431343 -0.60765725642564
 1  15.28812439583958  2.08435234803480 -1.93946532623262
 1  15.19828123272327  4.35993137113711 -0.71436343444344
 1  16.15868863896390  3.60336697809781  0.42817271767177
 1  17.90501418281828  3.21079257045705 -1.04424350395040
 1  15.91897261766177  4.87683421232123 -3.12838519831983
 1  17.94154007750775  4.70327984128413 -3.23211781688169
 1  16.89355955615562  3.27180825082508 -3.31166920152015
 1  18.19276532373237  5.32489370687069  0.26840850505051
 1  18.82733025532553  5.46670082228223 -1.08105501990199
 1  17.21529308020802  6.05029453255325 -1.09164322562256
 1 -4.82590789218922 -7.87911734483448  0.22286874917492
 1 -6.38529295959596 -6.99838692529253  0.52009551705170
 1 -5.07698586718672 -6.53280485608561  1.70075453205320
 8 -7.81101869346935  6.84631113191319 -0.50940872487249
 1 -9.18716701380138  6.20946659155916 -1.80381606440644

