%nproc=4
%Mem=2GB
# td=(NStates=1) iop(3/107=0140000000,3/108=0140000000) iop(3/107=0140000000,3/108=0140000000) CAM-B3LYP/6-31G(d,p) 

TD

0 1
12 -6.88120069216922  0.62579172327233  0.21021864136414
 6 -4.39354646114611 -1.91164958675868  0.27756803380338
 6 -4.38723053845384  2.83714534763476  0.76597947954795
 6 -9.23645635033503  3.17445146924692 -0.13267276897690
 6 -9.31314941254126 -1.78599162876288 -0.47270732943294
 7 -4.66074114601460  0.51532092979298  0.56069510161016
 6 -3.78730599619962 -0.66279598639864  0.63769432483248
 6 -2.50269368796880 -0.41296305550555  0.97435949824982
 6 -2.60407037283728  1.13019316811681  1.19432159465947
 6 -3.92799906280628  1.53766385158516  0.85715048974897
 6 -2.30882716841684  1.26770856675668  2.70613517631763
 6 -1.47822657105711 -0.80131269466947 -0.12817149084909
 6 -0.08744686298630 -0.96847855445545  0.30621969546955
 6  0.96312739193919 -1.13089032593259 -0.89481765556556
 8  0.88151821992199 -0.73076568906891 -2.02937392759276
 8  1.99040932753275 -1.62575287388739 -0.27337225972597
 7 -6.67714945714572  2.66054642464246  0.25959970787079
 6 -5.63943450435043  3.32081072427243  0.64855115131513
 6 -6.06519073427343  4.83559324412441  0.73303817241724
 6 -7.41803251665167  4.86130222072207  0.49539612291229
 6 -7.82911461536154  3.51425023342334  0.09316414781478
 6 -5.29152407270727  5.94787221772177  1.03602127012701
 6 -8.07574913621362  6.14803172327233  0.50666018971897
 8 -7.57878179437944  7.25957757435744  0.70387824462446
 7 -8.74640819431943  0.71696255545555 -0.39560220932093
 6 -9.60487415981598  1.77480221552155 -0.41824287658766
 6 -10.87785441574157  1.45496536763676 -0.83605938713871
 6 -10.91466582408241  0.03400430483048 -0.99606046154615
 6 -9.59502116541654 -0.42507067026703 -0.65796787348735
 6 -11.99262603790379  2.48635482858286 -1.09805445624562
 6 -12.12071519201920 -0.74184774707471 -1.03863199689969
 6 -12.24717157925793 -1.00391255645565 -2.55536833153315
 7 -6.77278376127613 -1.49401196249625 -0.24706735123512
 6 -8.03491615321532 -2.29412940964096 -0.41572477047705
 6 -7.56711429652965 -3.71994931733173 -0.30421143124312
 6 -6.14322994419442 -3.60077923882388 -0.15550381098110
 6 -5.84392068076808 -2.26256507100710  0.04409059335934
 6 -8.38017654115412 -4.91380875867587 -0.76526934283428
 6 -4.95361156565657 -4.35457125522552  0.10289831553155
 8 -4.90522227092709 -5.53019355765577  0.08712921952195
 6 -3.83923764916492 -3.32371293049305  0.38237288448845
 6 -3.25413892479248 -3.58798497399740  1.83762347534753
 8 -4.02145738583858 -3.80808754355436  2.79283795359536
 8 -1.85145682058206 -3.38267457275728  1.97531747094709
 6 -1.27886640874087 -3.77268235833583  3.31851627682768
 6  3.10347224002400 -2.11699687658766 -1.32274351845185
 6  4.16568033543354 -1.28553555465547 -1.14270980328033
 6  5.14849560496050 -1.04382125352535 -2.05037123872387
 6  5.16674065786579 -1.68315144984498 -3.42404938713871
 6  6.38984280888089 -0.11583923682368 -2.00605716421642
 6  7.49233792779278 -0.85093087518752 -1.06065280258026
 6  8.74794735503550  0.03912954755476 -0.62282076257626
 6  9.93813690309031 -0.60525744604460 -0.00393869956996
 6  9.56446396269627 -1.47815663036304  1.25988035683568
 6  11.02059438943894  0.39628448264826  0.07230206860686
 6  12.39916518701870 -0.28984767756776  0.35826413761376
 6  13.44276581918192  0.89074634933493  0.51492439083908
 6  14.82174851005101  0.07429070717072  0.46449111121112
 6  15.00587557565757 -0.83007528802880  1.77031695569557
 6  15.99477910631063  1.16600150215022  0.36502970827083
 6  17.33564304240424  0.82524774917492  0.22084521062106
 6  18.39449899729973  1.82528972017202  0.10660051325133
 6  19.72641484258426  1.27423591839184 -0.29652973667367
 6  19.80393019431943  0.48136356665667 -1.77965375657566
 6  20.83161032993299  2.43930534853485 -0.35942103800380
 1 -3.99366000430043  3.46075732673267  1.37994739643964
 1 -10.08855283778378  3.86351543664366  0.00015638173817
 1 -10.12087457905791 -2.60456085538554 -0.46604943084308
 1 -2.18276079287929 -1.02996061386139  1.78947899619962
 1 -1.76682602120212  1.79197967416742  0.98605505890589
 1 -1.75824720842084  0.57262557695770  2.67845855695569
 1 -2.56000417431743  2.26065464186419  3.14783090089009
 1 -3.07672000450045  0.82493037833783  3.20647651675168
 1 -1.61329034933493 -1.65459673267327 -0.73527131393139
 1 -1.62991816081608  0.12734126122612 -0.68020781158116
 1  0.16992499079908 -0.22154358765877  0.85280114531453
 1  0.06936321652165 -1.75901223502350  0.75155538763876
 1 -4.39674420482048  6.34988281618162  0.32654761246125
 1 -5.92850313091309  6.91344402030203  1.06439334543454
 1 -4.69667069526953  5.53308226922692  1.84263203550355
 1 -8.84997801190119  5.98036314551455  0.33556718091809
 1 -12.25645519911991 -1.64032489999000 -0.56810123732373
 1 -12.85099131413141 -0.41460506070607 -0.72318995539554
 1 -12.82289011211121 -1.50648276367637 -2.83569068616862
 1 -12.11122808660866  0.01064848634863 -2.92647481698170
 1 -11.01902872727273 -1.13443676067607 -2.95535214261426
 1 -9.06512569586959 -4.65573212881288 -1.98875110311031
 1 -7.88409362396240 -5.80232024462446 -0.95296494839484
 1 -9.20452773277328 -5.13166512771277  0.27282189168917
 1 -3.15546512791279 -3.24650837573757 -0.51377968476848
 1  3.12070368576858 -3.34500177397740 -1.21786750385039
 1  2.61329561836184 -2.09236515151515 -2.33814404970497
 1  4.11191851955196 -0.57489023742374 -0.19768616701670
 1  3.93484654165416 -1.77856132863286 -4.07176729172917
 1  5.87788136653665 -1.35507418281828 -4.13907513141314
 1  5.18797262466247 -2.54583719801980 -3.24198838263826
 1  7.17338776067607  0.38099343674367 -2.89320193739374
 1  5.99457456685668  0.85361090889089 -1.05800006340634
 1  7.06689786868687 -1.32232042914291 -0.12022030043004
 1  7.95632103050305 -1.84115290559056 -1.77307678357836
 1  9.10123225462546  0.58479907470747 -1.52827561286129
 1  8.35144364246425  0.82516770497050  0.26702241064106
 1  10.15878832593259 -1.20899834353435 -0.92613977157716
 1  8.77122936723672 -2.29816863256326  1.22680104090409
 1  10.46699276867687 -2.11131501270127  1.87264915631563
 1  8.95249846144615 -0.63805502790279  2.14384568966897
 1  11.23541717951795  0.88440120002000 -0.96346351795180
 1  10.82756250285028  1.05324420002000  0.86579045934593
 1  12.41179872207221 -0.85951839133913  1.16354003730373
 1  12.51026318031803 -0.95106332693269 -0.55330832833283
 1  13.61129599959996  2.02498204320432 -0.30428933353335
 1  13.15218726352635  1.45209946124612  1.41600739013901
 1  14.85318674447445 -0.63900141614161 -0.42200039123912
 1  15.40117001690169 -0.24716432093209  2.66972974597460
 1  13.84941221472147 -1.27820549244924  2.17814531263126
 1  15.78917595069507 -1.75596918001800  1.26108258595860
 1  15.74885602050205  1.71523151655166 -0.46130610531053
 1  16.41673570617062  1.99949948544854  1.28246656985699
 1  17.65994730983098 -0.04941177057706  0.87157734443444
 1  17.46892441664166  0.48270643984398 -0.88636001340134
 1  18.07039204630463  2.52364891269127 -0.87752074037404
 1  18.62272226832683  2.36202010891089  1.12123879437944
 1  20.06743930513052  0.57250009620962  0.44184753555356
 1  19.55575389338934  1.34181923152315 -2.50954307950795
 1  20.55879016901690  0.27682588078808 -2.10950508390839
 1  19.16802952995300 -0.56379409780978 -1.48633670837084
 1  20.99735651425143  3.14334391349135  0.57618837243724
 1  21.79043678397840  1.96079266196620 -0.65133784878488
 1  20.39000565346534  3.32438992619262 -0.77752254855486
 1 -0.06913253835383 -3.55353810321032  2.98756710471047
 1 -1.84488416941694 -4.45214248794879  3.37030766736674
 1 -1.41499551285129 -3.07016549364936  3.81492564576458
 8 -12.10665904020402  3.59715451465147 -0.98428024172417
 1 -12.86488700020002  1.99888112821282 -1.74979558455846

