%nproc=4
%Mem=4GB
# td=(NStates=1) iop(3/107=0140000000,3/108=0140000000) iop(3/107=0140000000,3/108=0140000000) CAM-B3LYP/6-31G(d,p) 

TD

0 1
12 -5.73866537313731  1.16247112141214  0.20346895209521
 6 -5.10530091729173 -2.11677014031403 -0.38515538233823
 6 -3.47457624672467  1.14409469426943  2.66311168446845
 6 -6.26107490319032  4.47032029622962  0.68453866266627
 6 -8.01278704580458  1.23900475117512 -2.36527420092009
 7 -4.37791204450445 -0.31462965476548  1.01775311411141
 6 -4.31088461596160 -1.63930763236324  0.66197854745475
 6 -3.24400752525252 -2.33377668046805  1.60060442414241
 6 -2.94395756675668 -1.27894078497850  2.69253580968097
 6 -3.60139756715672 -0.02922555025503  2.09557414261426
 6 -3.49004204360436 -1.83161660306031  3.94275697509751
 6 -1.89832502570257 -2.70901831113111  0.70446575207521
 6 -0.95774741824182 -3.52550013061306  1.53151673967397
 6  0.16916201670167 -3.93295713641364  0.58537673237324
 8  0.36370643494349 -3.56999431303130 -0.59267550175017
 8  1.18681552725273 -4.69878949624963  1.23551815911591
 7 -4.98483930023002  2.64856423332333  1.39632986468647
 6 -3.93682577237724  2.36176359805981  2.36209681298130
 6 -3.68257776147615  3.63657215941594  3.09850040624062
 6 -4.45191574427443  4.62296382468247  2.52153142444244
 6 -5.30377648184818  3.92794088928893  1.46941303360336
 6 -2.56773213631363  3.79091646744674  4.16312050145015
 6 -4.61767829842984  5.98550597109711  2.90383988878888
 8 -3.99642969096910  6.52389027702770  3.84964886478648
 7 -7.03508730863086  2.51354124992499 -0.60012166846685
 6 -6.93216593139314  3.89766938413841 -0.34572626132613
 6 -7.91674686108611  4.62966969176918 -1.19821393089309
 6 -8.51551100440044  3.75849277917792 -2.02657160156016
 6 -7.78439733023302  2.43401941074107 -1.71896784328433
 6 -8.24586757765777  5.99613952335234 -1.08408791759176
 6 -9.48039240254026  3.83030342854285 -3.20991562436244
 6 -8.82338379207921  4.05243338953895 -4.57793419741974
 7 -6.45594401340134 -0.17140215791579 -1.11973706570657
 6 -7.37179670927093 -0.05457152575258 -2.11095530623062
 6 -7.64052155935594 -1.27404910851085 -2.67666018861886
 6 -6.71741128992899 -2.19649922172217 -2.09356552225223
 6 -6.02493090849085 -1.49595316041604 -1.18342447284728
 6 -8.69357481528153 -1.73301342734273 -3.66406330253025
 6 -6.26763043014301 -3.60264584848485 -1.97662121722172
 8 -6.71303569906991 -4.60081778017802 -2.61785805090509
 6 -5.02329089118912 -3.58799685228523 -0.83105542534253
 6 -5.34336181358136 -4.64177961906191  0.17724139593959
 8 -5.94925069666967 -4.40834984308431  1.19785614901490
 8 -5.04301399959996 -5.86695789218922 -0.37075021962196
 6 -5.40145770997100 -6.94421627492749  0.51953378317832
 6  2.40140111331133 -5.04171529172917  0.55522947734773
 6  3.50020455545555 -3.99890005090509  0.98835673547355
 6  4.11128051825183 -3.17023989408941  0.17853148814881
 6  3.74563890279028 -3.07668260956096 -1.36644614911491
 6  5.22067849364937 -2.20747579517952  0.67383118191819
 6  6.62989786108611 -2.56579950515051 -0.01156968956896
 6  7.65933125672567 -1.65710506600660  0.56781247174717
 6  9.00956177747775 -1.83906874047405 -0.05791357385739
 6  9.58104448614862 -3.28505914631463  0.08718526082608
 6  9.99735031413141 -0.84060429782978  0.31340385588559
 6  11.36214351675168 -0.82991259815982 -0.41402016821682
 6  12.29028671727173  0.30209483698370  0.10407725532553
 6  13.62913536933693  0.50068493839384 -0.60595535873587
 6  14.47571587058706 -0.76072547514751 -0.22635678657866
 6  14.25697163676368  1.76889306090609 -0.19922917771777
 6  15.66164035443544  2.10490851905191 -0.90326532153215
 6  16.21077366176618  3.43485823862386 -0.56562717591759
 6  17.48562381148115  3.79026686828683 -1.21076501170117
 6  17.30533312301230  3.95353024472447 -2.78930115431543
 6  17.99758916501650  5.21942720802080 -0.74853431233123
 1 -2.80021574437444  1.31863613901390  3.66259672807281
 1 -6.51716969576958  5.75155053545355  0.67694668636864
 1 -8.57070747794779  1.27191749464946 -3.24613009180918
 1 -3.62653371817182 -3.27743305870587  1.79168722952295
 1 -1.85354247814781 -1.07982564416442  2.74568584468447
 1 -3.07832761186119 -2.62288544974497  4.46764030803080
 1 -3.34113490619062 -1.15660556495650  4.71422345214522
 1 -4.60039255095510 -2.06524560546055  3.80170412091209
 1 -2.29041435513551 -3.32085160246025 -0.13443406720672
 1 -1.47927575997600 -1.73156227252725  0.31274939653965
 1 -0.64426986048605 -3.04378567416742  2.32564678337834
 1 -1.44176889848985 -4.39915704690469  2.01912371037104
 1 -1.63430354415442  3.38335786018602  3.81237714741474
 1 -2.51930292039204  4.86774398039804  4.34188044574458
 1 -2.84609760476048  3.16708770627063  5.11252625862586
 1 -5.22556562046205  6.60564475887589  2.34795011641164
 1 -10.13603273677368  2.89776043314331 -3.22144539623962
 1 -10.15034583248325  4.55573941804180 -2.98384867556756
 1 -9.59823962376238  4.17281569556956 -5.30279548184819
 1 -8.20511002040204  4.95205495089509 -4.72468242324232
 1 -8.20521037003700  3.22127148594859 -4.68207813261326
 1 -8.78144573417342 -0.88668921182118 -4.47898889718972
 1 -8.44603558655866 -2.61016442154215 -3.92873551055105
 1 -9.81642172167217 -1.60425724912491 -3.51687859455946
 1 -4.17206456385639 -3.56235106170617 -1.28094138103810
 1  2.79225035803580 -5.91252919591959  1.16411236813681
 1  2.23453419681968 -5.19418639473947 -0.34448789838984
 1  3.80764288658866 -4.15491477327733  2.00765577317732
 1  2.68818380508051 -3.44366998809881 -1.43795633663366
 1  3.89138375167517 -1.99614317361736 -1.65232770327033
 1  4.56240841484148 -3.54723845304530 -1.90662958885889
 1  4.83022306320632 -1.15710213421342  0.47702958645865
 1  5.25613414071407 -2.21926355875588  1.85329020932093
 1  6.87284481118112 -3.54660785288529  0.33075095909591
 1  6.38649881028103 -2.50485809480948 -1.03149374487449
 1  7.35177410871087 -0.59954327942794  0.42749999549955
 1  7.67879998289829 -1.94403098619862  1.63922830813081
 1  8.85188929822982 -1.73191146634663 -1.07579091719172
 1  9.18989350805080 -3.88621739313931 -0.43240703310331
 1  10.63019236003600 -3.43915811791179 -0.21018113161316
 1  9.39888895029503 -3.42515360686069  1.12897334003400
 1  9.63796294689469  0.07708343454345  0.29607497129713
 1  10.23054315181518 -0.95199173307331  1.37031657165717
 1  11.87947308860886 -1.81665169706971  0.03432905970597
 1  11.16187227392739 -0.81589449434944 -1.76121745534553
 1  11.55866690019002  1.30693512271227  0.01933237803780
 1  12.55910073337334  0.08209940134013  1.11959023922392
 1  13.15131193189319  0.59380381268127 -1.62219445814581
 1  14.52157149544954 -0.68806701940194  0.90486616661666
 1  13.98768433943394 -1.68104712101210 -0.41903822532253
 1  15.42527351575158 -0.90477367556756 -0.70312720522052
 1  13.51454964916492  2.62701732083208 -0.27880966866687
 1  14.36972367266727  1.62376266546655  0.88790600450045
 1  16.39859151495149  1.29816842954295 -0.55327181788179
 1  15.63013859725973  1.97971188398840 -2.07564894459446
 1  15.48913031763176  4.13999937793779 -0.33575557365737
 1  16.36224899499950  3.48202484388439  0.50726062646265
 1  18.25956963836384  3.12190368156816 -1.06365544514451
 1  16.63080380078008  4.85536206510651 -2.94669702950295
 1  18.20136606010601  4.20624013731373 -3.34028863396340
 1  16.91014121432143  2.96973804380438 -3.14839287388739
 1  18.20850689788979  5.15523674117412  0.21814347854785
 1  18.87976549884988  5.45250940314031 -1.44543145754575
 1  17.20848239913991  5.94968447154715 -0.93419748104810
 1 -5.25487078847885 -7.88030746384638  0.06665312761276
 1 -6.39152358265827 -6.91270835743574  0.42539604710471
 1 -4.83525169376938 -7.10646222182218  1.48597305390539
 8 -7.72322991459146  6.83156965776578 -0.34964274827483
 1 -8.98101639873987  6.31855750065007 -1.96878256105611

