%nproc=4
%Mem=2GB
# td=(NStates=1) iop(3/107=0140000000,3/108=0140000000) iop(3/107=0140000000,3/108=0140000000) CAM-B3LYP/6-31G(d,p) 

TD

0 1
12 -6.74265683778378  0.54990413451345  0.15704332383238
 6 -4.65995310181018 -2.08219664146415  0.52798307530753
 6 -4.28226004140414  2.78722035513551  0.90052293389339
 6 -8.80312301700170  3.16013003710371 -0.12124162586259
 6 -9.22438053565357 -1.65699872947295 -0.83792385108511
 7 -4.58441351325133  0.29675907360736  0.67223625572557
 6 -3.85919318491849 -0.91532123892389  0.67521807720772
 6 -2.53004642324232 -0.55726748594859  1.04452651495150
 6 -2.49388935473547  0.94835498429843  1.44858702120212
 6 -3.93644990789079  1.39089917511751  0.98687346204620
 6 -2.20221650735074  1.39933172907291  2.82230679347935
 6 -1.66025477387739 -0.90437300070007 -0.07816649034903
 6 -0.20916903520352 -1.18598030463046  0.54370344384438
 6  0.73345442464246 -1.24931216811681 -0.82134030783078
 8  0.60693076117612 -0.71403401590159 -1.83127411761176
 8  1.97619790639064 -1.96797709630963 -0.47389231173117
 7 -6.59700144234423  2.59013938393839  0.44568831673167
 6 -5.53938449934994  3.34100274347435  0.68758505470547
 6 -5.87292150735074  4.82108179297930  0.71035590419042
 6 -7.22816352975298  4.87726381688169  0.48146472977298
 6 -7.67438914281428  3.43636244464446  0.22737756915692
 6 -4.78933385368537  5.89766719721972  1.01581924992499
 6 -7.87184874617462  6.04378129822982  0.35927545124513
 8 -7.34828874507451  7.13821543814381  0.35185304210421
 7 -8.56580013351335  0.75866672587259 -0.54342699179918
 6 -9.30514418681868  1.88563329862986 -0.53826487878788
 6 -10.74524115441544  1.57943781488149 -0.84762054325433
 6 -10.86091044854485  0.12167307170717 -0.96449730523052
 6 -9.55843750705071 -0.38754691789179 -0.82556463316332
 6 -11.93938071337134  2.42233842694269 -1.05023967476748
 6 -11.96718983948395 -0.69377293959396 -1.27141527522752
 6 -12.08565542764276 -1.02572473767377 -2.91661445614562
 7 -7.05532201510151 -1.36009857115712  0.04488184368437
 6 -8.02984564616462 -2.21908190489049 -0.44304750275027
 6 -7.47714529962996 -3.64227154955495 -0.42717372747275
 6 -6.19095471667167 -3.49339850075008  0.01466320572057
 6 -5.97289357805781 -2.14569338383838  0.25589177347735
 6 -8.37390591409141 -4.73554093189319 -0.89095191109111
 6 -5.16289249374937 -4.49415521362136  0.15547357305731
 8 -4.90360210891089 -5.62005254355436 -0.21535102850285
 6 -3.93999772517252 -3.40138069726973  0.37033168036804
 6 -3.47461097199720 -3.77143331883188  1.81333104610461
 8 -3.93853909400940 -4.01383811861186  2.86317498729873
 8 -2.02444411931193 -3.76686299159916  1.77753769296930
 6 -1.24811333343334 -4.29954504460446  2.86774119931993
 6  3.01960385318532 -2.00788596549655 -1.41827307140714
 6  3.98306207360736 -0.83878087918792 -1.13046857915792
 6  5.05628638403840 -0.83636050745074 -1.91437763936394
 6  5.35434941874187 -1.72383551825182 -3.12477946014601
 6  6.21521534613461  0.02713506060606 -1.57352391089109
 6  7.38406710071007 -0.65836161826183 -0.79957669496950
 6  8.51829438973897  0.28106374097410 -0.58728720922092
 6  9.88996208560856 -0.28871579187919  0.15631732603260
 6  9.47703521982198 -0.83993280798080  1.48076244504450
 6  10.91984431443144  0.73970882508251  0.10034487288729
 6  12.17808307880788  0.26256756395640  0.43223153435344
 6  13.43371491409141  1.18727600230023  0.42221511991199
 6  14.78149448464847  0.47788106620662  0.72041670377038
 6  14.81490647874788  0.28096581608161  2.35234515851585
 6  15.84835446384639  1.35603050505051  0.05020822612261
 6  17.29903938203820  0.75209043344334  0.04457758385839
 6  18.37667721512151  1.57603479467947 -0.43319346614661
 6  19.74890709180918  0.87202569736974 -0.50585066876688
 6  19.67384718601860 -0.26827139683968 -1.57250304150415
 6  20.91875904480448  1.91146256425643 -0.94213930983098
 1 -3.71447208550855  3.63184443544354  1.22942234393439
 1 -9.45620960346035  3.87581666676668 -0.34293792769277
 1 -10.15858835043504 -2.47516791609161 -0.69523234913491
 1 -1.94730724752475 -1.05428304610461  1.67521757005701
 1 -1.85999533813381  1.45023549974998  0.61525797919792
 1 -1.05102648634864  1.14680299469947  3.14240495159516
 1 -2.27903607750775  2.31991056745675  3.22125824362436
 1 -2.86231856435644  0.68847673297330  3.70630649974997
 1 -1.91534055435544 -1.60897217021702 -0.89625741254125
 1 -1.62733790279028  0.03020154725472 -0.68690848164816
 1  0.25751374967497 -0.25830726402640  1.09883574877488
 1 -0.25230895069507 -1.98343467726773  1.03941417351735
 1 -4.26853138353835  6.08143597149715  0.07764272197220
 1 -5.48298857945795  6.93743641954195  0.86720362646265
 1 -4.21854288248825  5.62310127112711  1.89723749604960
 1 -8.76538955305531  5.79076418561856  0.34935856005601
 1 -12.08985853945394 -1.73507437493749 -1.00332475967597
 1 -13.21254746974697 -0.34902850305030 -1.46171380778078
 1 -12.97890571367137 -1.37135925132513 -3.49619673677368
 1 -12.22204916871687  0.20537795929593 -3.52326449594960
 1 -11.37106393079308 -1.86165948294829 -3.08605521292129
 1 -8.46345552885289 -4.72437899349935 -2.24687691569157
 1 -8.35612082668267 -5.77155716831683 -0.89170882278228
 1 -9.16237351735174 -4.44392635383538 -0.34921031153115
 1 -3.19057863926393 -3.30418414331433 -0.43454176097610
 1  3.19733134853485 -3.40619789358936 -1.60730644774477
 1  2.77561184998500 -1.89108502350235 -2.15421565686569
 1  3.55593292099210 -0.52691543994399 -0.08376477487749
 1  4.58812186918692 -1.58745221772177 -3.93427354235424
 1  6.52779635803580 -1.55287396279628 -3.68615983988399
 1  5.58355218261826 -3.07616023032303 -2.93311749554955
 1  6.36341676357636  0.75503084048405 -2.42199481668167
 1  5.38403351275127  0.50530607840784 -0.84113837723772
 1  7.03741492039204 -1.28271646874687 -0.18991727012701
 1  7.92684808320832 -1.46808559885989 -1.60316979287929
 1  8.81649378077808  0.92668326312631 -1.63394617991799
 1  8.21868036613661  1.31417660586059  0.09360506890689
 1  10.05909835693569 -1.23132057575758 -0.37691484908491
 1  8.59156140044004 -1.63942275797580  1.56182454325433
 1  10.26958302770277 -1.53151703290329  1.98881077247725
 1  9.13705691729173 -0.08928015041504  2.20636194129413
 1  11.30240387818782  1.37771053095310 -0.65253242484248
 1  10.67013676027603  1.22387126272627  0.86267014731473
 1  12.18879642184218 -0.09066150565057  1.02772645594559
 1  12.29882203620362 -0.71636985758576  0.11702870537054
 1  13.45705057505751  1.84438398339834 -0.56494539913991
 1  13.32801484628463  2.17857210851085  1.26665245464546
 1  14.56042746854686 -0.60182769876988  0.43338514731473
 1  14.78273817371737  1.29590998649865  2.66325909890989
 1  13.80218749224922 -0.12146981888189  2.64529202730273
 1  15.63893092619262 -0.57648123122312  2.48245472317232
 1  15.76177731263126  1.71675166856686 -1.00883085778578
 1  15.66841087368737  2.37832736823682  0.47312563576358
 1  17.32900421552155  0.20502367296730  1.07374756145615
 1  17.29638716291629 -0.38111994279428 -0.54035541294129
 1  17.99469447654766  2.34924147194719 -1.11200418871887
 1  18.60485048114812  2.40637454435444  0.34375104560456
 1  19.92469503070307  0.42303514971497  0.61808515931593
 1  19.13813213121312  0.20171522112211 -2.89135126032603
 1  20.54696898689869 -0.77824962676268 -1.77845197859786
 1  19.05232795979598 -1.25110282868287 -1.15861393609361
 1  20.93781055965596  2.55056463556356 -0.19418866526653
 1  21.70674841514152  1.28009459215922 -1.07176989198920
 1  20.47333398629863  2.23678116531653 -1.96393118941894
 1  0.09132350725073 -4.49911266066607  2.43681202920292
 1 -1.82225190619062 -5.30702797649765  3.07289792639264
 1 -1.46287030033003 -3.36827530463046  3.60746489968997
 8 -11.91561993629363  3.66097089628963 -0.69081089478948
 1 -13.03717422892289  1.81922316241624 -1.52237284228423

