%nproc=4
%Mem=4GB
# td=(NStates=1) iop(3/107=0140000000,3/108=0140000000) iop(3/107=0140000000,3/108=0140000000) CAM-B3LYP/6-31G(d,p) 

TD

0 1
12 -5.69904141074107  1.17433230753075  0.17803640884088
 6 -4.90262064926493 -2.17113557685769 -0.38939580638064
 6 -3.53619240834083  1.12532281708171  2.77948332163216
 6 -6.14200299599960  4.50329359355936  0.60193040184018
 6 -7.93359912701270  1.19039989068907 -2.44501217471747
 7 -4.42900715401540 -0.32649084088409  1.13150448924892
 6 -4.29104263176318 -1.63407710931093  0.71852420202020
 6 -3.23466659115912 -2.41189449224922  1.57977234093409
 6 -2.97780095109511 -1.28469136003600  2.70819737583758
 6 -3.66208363576358 -0.06112874057406  2.15785037023702
 6 -3.51483452285229 -1.82472591399140  4.01245394479448
 6 -1.94168936213621 -2.62518992829283  0.81727703320332
 6 -1.04353599709971 -3.59227680828083  1.52791637963796
 6  0.18984408490849 -3.91148498919892  0.67454564926493
 8  0.32151221552155 -3.47477479107911 -0.44301053525353
 8  1.02910975667567 -4.73227284458446  1.40367497479748
 7 -4.87113793009301  2.65846522342234  1.42345257695770
 6 -4.02041413121312  2.48259568126813  2.47752835613561
 6 -3.76476598029803  3.60785928812881  3.26906746294629
 6 -4.45822637533753  4.61825335363536  2.63888315961596
 6 -5.19505560976098  3.94400249544954  1.43346943924392
 6 -2.91537690079008  3.77794517031703  4.44184837423742
 6 -4.54899142974297  6.03756117661766  2.90093959875988
 8 -3.97109715771577  6.57147503550355  3.89452335223522
 7 -6.98214201410141  2.59097899369937 -0.67422907920792
 6 -6.96969968476848  3.89991960916092 -0.44959664836484
 6 -7.89309449584959  4.61827855265526 -1.24270838033803
 6 -8.45811526482648  3.65920285018502 -2.15261420582058
 6 -7.87940683118312  2.38997500630063 -1.72007795429543
 6 -8.15766875777578  6.10860076947695 -1.25830533933393
 6 -9.44269863316332  3.91518191639164 -3.26143077587759
 6 -8.71933338703870  4.22956110231023 -4.56826323032303
 7 -6.34172259125913 -0.17044206190619 -1.16899199119912
 6 -7.34495402500250  0.00985491689169 -2.14985919661966
 6 -7.57196470367037 -1.42128383198320 -2.70146266886689
 6 -6.53633318211821 -2.17472704450445 -2.19918608430843
 6 -5.81724013941394 -1.46227979307931 -1.19597572797280
 6 -8.57986344414441 -1.66980710671067 -3.76497339353935
 6 -6.18922258935894 -3.51802738663866 -2.02597615271527
 8 -6.60863525902590 -4.51485918431843 -2.63217948304831
 6 -5.03995255735574 -3.62407045964596 -0.85754807460746
 6 -5.27554503190319 -4.66022146324632  0.18274194599460
 8 -5.59217498909891 -4.44022303040304  1.33321968536854
 8 -4.95069476767677 -5.91145234163416 -0.24544768936894
 6 -5.31003856805681 -6.92455430873087  0.62332416221622
 6  2.27739871307131 -5.08364948514851  0.83853780818082
 6  3.40008454345435 -4.06400656155616  0.99018691849185
 6  3.98907829802980 -3.21336420652065  0.03096673167317
 6  3.71314565346535 -3.09015395669567 -1.38358786328633
 6  5.18961538733873 -2.54913996159616  0.65239903870387
 6  6.57384225552555 -2.72558548374837 -0.08141667426743
 6  7.73048837243724 -1.86415577107711  0.59820551105111
 6  8.96464728602860 -2.03174800840084 -0.14254203670367
 6  9.53761014271427 -3.40828146854685 -0.03678713641364
 6  9.97856843594360 -0.94667490489049  0.26353886938694
 6  11.35006230863086 -0.79688929582958 -0.48123688988899
 6  12.16436412501250  0.38665329282928 -0.00735388778878
 6  13.51374383018302  0.51418628852885 -0.76474123732373
 6  14.37194549354935 -0.76554595719572 -0.68054220512051
 6  14.22494843444344  1.78051422302230 -0.18967822262226
 6  15.46417060746075  2.15143317151715 -0.97120211521152
 6  16.02882546694670  3.51286603940394 -0.47957857105711
 6  17.37452270137014  3.91721956355636 -1.16827076227623
 6  17.01636422612261  4.08553344504450 -2.63965618981898
 6  17.98327773387339  5.19847511281128 -0.54610406930693
 1 -2.77986370917092  1.23567784318432  3.71646211461146
 1 -6.11871985078508  5.54576995739574  0.88996798849885
 1 -8.76679708690869  1.11581188408841 -3.20344582338234
 1 -3.63996506130613 -3.32670798619862  1.87696575737574
 1 -1.87267439133913 -1.00107776937694  2.74272554865487
 1 -2.95257503660366 -2.55985914711471  4.35904944894489
 1 -3.46848764146415 -0.93897380178018  4.67683971377138
 1 -4.54843735543554 -2.08905798669867  3.78146209670967
 1 -2.03318863256326 -3.00346986428643 -0.24571519531953
 1 -1.44290212261226 -1.70802991929193  0.72988110971097
 1 -0.78343377687769 -3.27643893949395  2.45443966266627
 1 -1.31594631623162 -4.61239837103710  1.72543434143414
 1 -1.93994410821082  3.52944246864686  4.10492640234023
 1 -2.86491748184818  4.86926413241324  4.67367362506251
 1 -3.35076807180718  3.37637863536354  5.39752475847585
 1 -5.13921698559856  6.75604979937994  2.37494281568157
 1 -10.05036416991699  3.02955361246125 -3.55059831153115
 1 -10.16452725062506  4.79593343744374 -2.85203549424943
 1 -9.49157895769577  4.08851726572657 -5.31665686798680
 1 -8.30895040444044  5.31500124552455 -4.56624657965797
 1 -7.82845269426943  3.43930328912891 -4.66042596739674
 1 -8.43998158775878 -0.94005454835484 -4.49942094039404
 1 -8.42241322432243 -2.68154155925593 -4.39782241924192
 1 -9.56857693719372 -1.63507033043304 -3.48203511021102
 1 -4.07225458285829 -4.25623044964496 -1.36533982088209
 1  2.46872800580058 -5.94873281628163  1.41784774167417
 1  1.90324106750675 -5.18491546764677 -0.24387783738374
 1  3.91371349364937 -4.09897917971797  1.97070207780778
 1  2.75616060276028 -3.45948156925693 -1.68989153015302
 1  3.90975558885889 -2.04034759405941 -1.60799326982698
 1  4.51898407240724 -3.84180790999100 -1.88261718761876
 1  5.04897493839384 -1.48232465646565  0.52441432493249
 1  5.27629615691569 -2.73593522592259  1.75162004230423
 1  6.74303182988299 -3.86998019011901  0.02273015701570
 1  6.53350351075108 -2.68270587958796 -1.20544113961396
 1  7.49010794209421 -0.71813513861386  0.43907115261526
 1  7.99644174707471 -1.89570615371537  1.78965335063506
 1  8.87372148144815 -1.74350262546255 -1.07148048614861
 1  8.70299481818182 -4.08529730113011 -0.48474226662666
 1  10.42151149194919 -3.58675287738774 -0.53132324582458
 1  9.85260432183218 -3.69484057555756  1.01565200790079
 1  9.39619877047705 -0.05929020282028 -0.04230886708671
 1  10.09914001150115 -0.98235476937694  1.31582112211221
 1  12.01158629992999 -1.69678971087109 -0.61747612081208
 1  11.00152623932393 -0.29760266516652 -1.59773110671067
 1  11.49354038753875  1.18782321152115 -0.06036559175918
 1  12.20282510581058  0.23115430683068  1.10132841304130
 1  13.33712051275127  0.85761019331933 -1.84022626132613
 1  14.46887622592259 -1.06883509620962  0.41281696169617
 1  13.98113368436844 -1.52252126842684 -1.67221354285429
 1  15.48324931333133 -0.38778197639764 -0.83568046054605
 1  13.51813000720072  2.48004262336234 -0.12026381408141
 1  14.53230993129313  1.69382967216722  0.83648086198620
 1  16.35416707250725  1.41614022672267 -0.91592808350835
 1  15.24402998639864  2.36024993779378 -2.10467184688469
 1  15.16812821742174  4.22425780378038 -0.34088608670867
 1  16.41697446754675  3.51946858825883  0.73563346374637
 1  18.05430911231123  3.03450494169417 -1.19592867246725
 1  16.32587330773077  4.94537106600660 -2.74866722652265
 1  18.07015293879388  4.45516502980298 -3.01622622772277
 1  16.53409360956095  3.30977204720472 -3.24274230883088
 1  18.05626167336733  4.97874909240924  0.51560322452245
 1  19.21926944924493  5.67930208240824 -0.86899381378138
 1  17.28836038693869  6.07771727482748 -0.78251231253125
 1 -4.56508180958096 -7.89251868496850  0.28292475477548
 1 -6.41903633393339 -7.19795688228823  0.63449695719572
 1 -5.00414858345835 -6.74031560716072  1.69156361296130
 8 -7.64335192679268  6.90307680848085 -0.54544232823282
 1 -8.91496979407941  6.34521016591659 -2.04192987578758

