%nproc=4
%Mem=4GB
# td=(NStates=1) iop(3/107=0140000000,3/108=0140000000) iop(3/107=0140000000,3/108=0140000000) CAM-B3LYP/6-31G(d,p) 

TD

0 1
12 -5.74534604120412  1.18774364866487  0.25064366956696
 6 -5.01977236443644 -2.03971243454345 -0.39620648744875
 6 -3.49133792289229  1.25449573437344  2.73468884218422
 6 -6.33940273597360  4.57607087128713  0.73202341114111
 6 -8.00941670877088  1.21385223592359 -2.37185485898590
 7 -4.44750900420042 -0.30438863066307  1.07067840664066
 6 -4.31111463896390 -1.58388208980898  0.74463681328133
 6 -3.16858998349835 -2.28194149694969  1.48862322602260
 6 -2.89103227422742 -1.22668555945595  2.58921547764776
 6 -3.70055748314831 -0.05584821252125  2.13502808800880
 6 -3.47651069046905 -1.70086352775278  3.96085878527853
 6 -1.92122731593159 -2.55209261856186  0.64425973147315
 6 -0.97262890639064 -3.47816539713971  1.47210079807981
 6  0.30712581308131 -3.76430027072707  0.61871006570657
 8  0.53707377167717 -3.18989630323032 -0.49216545074507
 8  1.06096294199420 -4.64634425172517  1.24584919221922
 7 -5.03426424272427  2.65378475537554  1.44351458315832
 6 -4.19717180698070  2.49808723042304  2.39438004130413
 6 -3.94336384008401  3.68003650585059  3.18505906210621
 6 -4.72182273497350  4.71866339463946  2.60362963426343
 6 -5.51924802900290  3.92149024422442  1.54126021832183
 6 -2.90861622472247  3.86984436023602  4.38655284468447
 6 -4.89749628022802  6.01741916241624  3.01837134193419
 8 -4.27125717371737  6.50789867786779  3.92403630353035
 7 -6.92547634753475  2.59176907270727 -0.69613126942694
 6 -6.99813252805281  3.91090070727073 -0.30042173087309
 6 -7.94753994039404  4.57510423522352 -1.16882099159916
 6 -8.46987644094409  3.66112304220422 -2.10196914131413
 6 -7.84516340684068  2.44543055185519 -1.72276822332233
 6 -8.46653964486449  5.90709061846185 -1.10673018181818
 6 -9.41611597489749  3.80571096929693 -3.20476510931093
 6 -8.71992344604461  3.95939408560856 -4.62184858885889
 7 -6.42199061806181 -0.08590360806081 -1.15243033503350
 6 -7.39147867746775  0.00934486588659 -2.10350456115612
 6 -7.46872437963796 -1.35396710031003 -2.81005352795280
 6 -6.67222677147715 -2.15491506330633 -2.09183534923492
 6 -5.97247566296630 -1.35935950105011 -1.14855098549855
 6 -8.43913937173717 -1.71037116311631 -3.83270016621662
 6 -6.21919558665867 -3.52021760566057 -2.02872642774277
 8 -6.63050744624462 -4.47068476687669 -2.54002026712671
 6 -5.08013657575758 -3.50912896549655 -0.92522484228423
 6 -5.18468594599460 -4.66869231033103  0.10545421722172
 8 -5.69529530113011 -4.49714872297230  1.20981734513451
 8 -4.80715041324132 -5.87495869226923 -0.39368251285129
 6 -5.05896346054605 -6.92555440874087  0.57836966676668
 6  2.41853282648265 -4.91487260746075  0.62375633003300
 6  3.41782631763176 -3.90473063396340  0.99632753255326
 6  4.11233062326233 -3.15860873097310  0.07809144414441
 6  3.86811115001500 -3.11727666896690 -1.44111361586159
 6  5.26950337613761 -2.43128817641764  0.60450424922492
 6  6.61257612891289 -2.82905583078308  0.11802326972697
 6  7.71219654325433 -1.86926628212821  0.62755844634463
 6  9.02012283358336 -2.05295012861286 -0.07531531403140
 6  9.59625600730073 -3.40621126152615  0.18091463376338
 6  10.04420499959996 -1.07731796919692  0.37660017551755
 6  11.39645694809481 -0.98359796669667 -0.34290305650565
 6  12.29041673027303  0.22110673817382  0.10685753335334
 6  13.67078953475347  0.33626849674967 -0.57495225842584
 6  14.54805310431043 -0.88837824042404 -0.40337448834883
 6  14.38617455705571  1.63576974857486 -0.16130538533853
 6  15.49787397779778  2.04237226542654 -1.02555755075508
 6  16.29746233063306  3.41136588938894 -0.53341395459546
 6  17.50025527462746  3.80687852945295 -1.40136407160716
 6  16.99791238093809  4.20564545624562 -2.91959418361836
 6  18.24123352945294  4.93563882918292 -0.82583204210421
 1 -2.65350107290729  1.36236051145115  3.40966143454345
 1 -6.51633961276128  5.60249562996300  1.01835082678268
 1 -8.76278668586859  1.06160646354635 -3.24157963676368
 1 -3.63013407820782 -3.10448576397640  1.92342040284028
 1 -1.90733785768577 -0.94234189578958  2.58028930503050
 1 -2.84264404350435 -2.43862702390239  4.51008455245525
 1 -3.21314210691069 -0.82671257565757  4.68116014581458
 1 -4.41396390809081 -1.96864594549455  3.83659761026103
 1 -2.13486880058006 -2.90786030333033 -0.45372599639964
 1 -1.32206003840384 -1.67236635293529  0.52315043664366
 1 -0.67620305380538 -3.10841213681368  2.45257947664766
 1 -1.28816353795380 -4.42080921212121  1.75663746174617
 1 -1.94842495629563  3.63263278767877  4.19852576227623
 1 -3.00015100520052  4.79123632963296  4.55494175187519
 1 -3.48582157715772  3.29085008250825  5.07656266226623
 1 -5.60734379827983  6.54259845424542  2.39401472287229
 1 -10.06536567006701  3.05613627072707 -3.28666191789179
 1 -9.99239003690369  4.67142098619862 -2.87000729142914
 1 -9.49683948374838  3.99871828582858 -5.30993619591959
 1 -8.03434294369437  4.82528227362736 -4.51273122812281
 1 -8.19173902290229  3.03114247304730 -4.92034195899590
 1 -7.97360495009501 -1.43774431733173 -4.93400439873987
 1 -8.47200818381838 -2.87493089818982 -3.86137877487749
 1 -9.52428250775078 -1.39038586198620 -3.63729063576358
 1 -3.92993035043504 -3.58484331093109 -1.44303759065907
 1  2.58659979297930 -5.97160510351035  1.03532948984898
 1  2.29059980338034 -4.96908388448845 -0.44605805540554
 1  3.60068219051905 -3.99032831463146  2.00594560216022
 1  2.93303829052905 -3.60456607770777 -1.61525406640664
 1  3.96877149044904 -2.00507406670667 -1.63651612211221
 1  4.46207838183818 -3.69758348754875 -2.04286321222122
 1  5.15319536043604 -1.39969639363936  0.59402128562856
 1  5.24359288658866 -2.34746637903790  1.68751363166317
 1  6.92077960466047 -3.92626581868187  0.37550543454345
 1  6.69477963836384 -2.86071368036804 -1.01932252775278
 1  7.33507243854385 -0.78367169226923  0.63360060556056
 1  7.89390149304931 -2.14829141224122  1.78930331563156
 1  8.84299840914091 -2.09331760696070 -1.13911724982498
 1  8.93889840854085 -4.24706347774777 -0.37930172257226
 1  10.57862720352035 -3.56088029012901 -0.20258037153715
 1  9.53966302770277 -3.89133022452245  1.33413385608561
 1  9.55856500710071 -0.10783505730573  0.39044440824082
 1  10.18245834333433 -1.29790632453245  1.46741628162816
 1  12.02765790709071 -1.96955698759876  0.00049567636764
 1  11.14904099079908 -1.06774967986799 -1.32618395199520
 1  11.63294432793279  1.16833126232623  0.00794123892389
 1  12.50074489778978 -0.01207001560156  1.13227150735073
 1  13.26650345104510  0.47598203050305 -1.67439967866787
 1  14.60876021432143 -1.11975018771877  0.67589326932693
 1  14.19873544454445 -1.72436145244524 -0.65427174867487
 1  15.72143313171317 -0.36398959715972 -0.69918681118112
 1  13.59297749194920  2.48195281438144  0.04447265956596
 1  14.73688038833883  1.50442073127313  0.87535474937494
 1  16.33020467626763  1.25691430413041 -1.00556704740474
 1  15.29680526392639  2.27808172097210 -2.09780115981598
 1  15.62290369496950  4.19362474047405 -0.68643064116412
 1  16.50932370247025  3.32003864526453  0.47106700710071
 1  18.32540622202220  3.05478696989699 -1.47830691029103
 1  16.35103582398240  5.44705123402340 -2.81626398619862
 1  17.90252617611761  4.50467998129813 -3.54175878097810
 1  16.39883008320832  3.47155822582258 -3.51651968656866
 1  18.31553760096009  4.77835905340534  0.34912657685769
 1  19.16239376167617  5.22997714991499 -1.19955687008701
 1  17.52314386528653  5.76080558365837 -0.76190025132513
 1 -4.66691199259926 -7.77644707780778  0.13472993529353
 1 -6.00266469676968 -7.14426151275127  0.78354186168617
 1 -4.66378454705471 -6.62785436103610  1.60664512111211
 8 -8.07455504710471  6.74586108690869 -0.34008179217922
 1 -9.02291058815882  6.26479212411241 -2.15857153995400

