%nproc=4
%Mem=4GB
# td=(NStates=1) iop(3/107=0140000000,3/108=0140000000) iop(3/107=0140000000,3/108=0140000000) CAM-B3LYP/6-31G(d,p) 

TD

0 1
12 -5.57699920652065  1.17549242354235  0.12854145934593
 6 -4.90578096529653 -2.08368683198320 -0.41498836563656
 6 -3.37815660476048  1.15179546434643  2.79117449074907
 6 -6.11263005870587  4.52795605980598  0.52340254905491
 6 -8.05730149724972  1.15767661836184 -2.22280995449545
 7 -4.31659591289129 -0.29158735053505  0.98156949574957
 6 -4.22440596809681 -1.67713141474147  0.57879022862286
 6 -3.21982510701070 -2.32518582138214  1.47273163686369
 6 -2.98201137213721 -1.34704759565957  2.65324188028803
 6 -3.57039446684668 -0.04475710341034  2.06938152335234
 6 -3.58038107750775 -1.75467890929093  4.01886458585859
 6 -1.90934612781278 -2.62248965826583  0.64397970347035
 6 -0.89604124762476 -3.48928650925093  1.47502109010901
 6  0.33000810131013 -3.92713655435544  0.62563075777578
 8  0.51206127042704 -3.42324963856386 -0.49100533473347
 8  1.11288813451345 -4.88972859015902  1.18018262556256
 7 -4.77062787908791  2.60066944384438  1.41944217591759
 6 -3.88217030683068  2.42577999969997  2.38402900620062
 6 -3.58258776247625  3.69929843204320  3.07119767596760
 6 -4.42796334903490  4.60111163946395  2.50248952025203
 6 -5.19751585578558  3.94738283348335  1.40744683698370
 6 -2.68778414151415  3.72191956775678  4.23917810721072
 6 -4.50563709430943  6.06741416191619  2.90274977977798
 8 -3.93416346434643  6.55678356635663  3.87894179407941
 7 -6.79764356425643  2.68617851365137 -0.69698135443544
 6 -6.92021473627363  3.92211182838284 -0.40676236493649
 6 -7.88776396279628  4.63600032483248 -1.25237934743474
 6 -8.37551700500050  3.60685761566157 -2.07411635603560
 6 -7.82818170867087  2.42345835463546 -1.68911485798580
 6 -8.25178816971697  5.94921483088309 -1.08709821862186
 6 -9.51757612091209  3.84592499069907 -3.03148778157816
 6 -8.97309876357636  3.97433557975798 -4.54772117611761
 7 -6.40216863586359 -0.13595861356136 -1.07190228222822
 6 -7.43829335893589  0.01823575497550 -1.96949115981598
 6 -7.62091959915992 -1.38706040964096 -2.61115363796380
 6 -6.75001455025503 -2.22549212101210 -2.02408857455746
 6 -5.91778019341934 -1.37360092519252 -1.16829295969597
 6 -8.55750120792079 -1.63970409640964 -3.79253614981498
 6 -6.25937960506051 -3.60519610351035 -1.97428098319832
 8 -6.55219961546155 -4.56847454585458 -2.69823608870887
 6 -5.06419498159816 -3.55615366796680 -0.82185450525052
 6 -5.45646312371237 -4.68044348544855  0.21627529932993
 8 -5.84160993259326 -4.36237524562456  1.37127349074907
 8 -5.02692239043904 -5.80687188358836 -0.24310745534553
 6 -5.33146071027103 -6.94287614091409  0.63959578937894
 6  2.35571654485449 -5.12869398959896  0.55991994639464
 6  3.38102263726373 -4.12833299419942  0.95192309210921
 6  3.91422081228123 -3.38919178927893  0.11618525352535
 6  3.78297263616362 -3.27136207750775 -1.45811531603160
 6  5.08632505830583 -2.37031207880788  0.51397519631963
 6  6.45059993129313 -2.67112003720372 -0.08402693529353
 6  7.60767609120912 -1.79517887338734  0.53911960246025
 6  8.95767658895890 -1.95243007660766 -0.10992877537754
 6  9.40596697839784 -3.38124876527653  0.10645718801880
 6  9.93207378647865 -0.97225746314631  0.38276079157916
 6  11.26756405880588 -0.82686229312931 -0.33100186638664
 6  12.20148783738374  0.31909653715372  0.23002985058506
 6  13.48698115391539  0.52204707460746 -0.59572433563356
 6  14.40824912391239 -0.73257265986599 -0.37174132503250
 6  14.26682262186219  1.80517668926893 -0.09335859065907
 6  15.41310550095009  2.25833386158616 -0.90754574957496
 6  16.00857344174418  3.56200095289529 -0.50047066026603
 6  17.31531678077808  3.90412825442544 -1.22769670487049
 6  17.20607319701970  4.01389628132813 -2.75735795999600
 6  17.79897930403040  5.27643290859086 -0.60572003090309
 1 -2.79340506330633  1.01104537993799  3.72192266066607
 1 -6.03305128392839  5.57613299369937  0.58239723142314
 1 -8.97537794499450  1.18776907980798 -2.92719819861986
 1 -3.66735780058006 -3.40836615201520  1.77831589238924
 1 -1.78911603550355 -1.29783744534453  2.97853913001300
 1 -3.17985776487649 -2.74394755595560  4.22805634963496
 1 -3.22324311701170 -1.16613651805180  4.80597262706271
 1 -4.59077158885889 -2.02148122902290  3.96287023752375
 1 -2.16893220692069 -3.03864338163816 -0.37949857365737
 1 -1.36073390579058 -1.80105922222222  0.21382950455046
 1 -0.58591402490249 -2.74920621622162  2.30172439113911
 1 -1.33314803640364 -4.52223935513551  1.87588938693869
 1 -1.61429154295430  3.44796432083208  3.88797470717072
 1 -2.72552354245424  4.75672287828783  4.48298455615562
 1 -3.31596459145915  3.27446844434443  5.01434644064406
 1 -4.90227329122912  6.64451864626463  2.10199552095209
 1 -10.24596372987299  3.00839149624963 -3.14044729642964
 1 -10.14026482438244  4.51973581768177 -2.87282757345735
 1 -9.81744154395439  3.98102651665167 -5.20297549984998
 1 -8.26047555695570  4.86476622202220 -4.65886584158416
 1 -8.32384223322332  3.40103946274627 -4.95600552535254
 1 -8.24143173277328 -1.03769431233123 -4.64130512881288
 1 -8.59255023802380 -2.82595600070007 -3.72141477847785
 1 -9.64494457395740 -1.32096892029203 -3.53312021872187
 1 -4.16743410081008 -4.10347517411741 -1.31777506440644
 1  2.58786991999200 -6.23197114011401  0.85082103900390
 1  2.15892663606361 -5.14083105920592 -0.52398584818482
 1  4.00109223152315 -4.14558384018402  1.89769477707771
 1  2.68400338703870 -3.57405302640264 -1.70177271827183
 1  3.68610322362236 -2.26256981628163 -1.72978544904490
 1  4.42976515051505 -3.85488921812181 -2.13613253915392
 1  4.76366640754075 -1.26848327232723  0.35820770427043
 1  5.10323885118512 -2.57393902630263  1.70527540784078
 1  6.62476000270027 -3.78856204830483  0.06850473447345
 1  6.46475663606361 -2.40614822382238 -1.16885748124812
 1  7.37023595489549 -0.71316464156416  0.36031327682768
 1  7.57222932583258 -1.81565814891489  1.62022640794079
 1  8.96616072537254 -1.83088136333633 -1.26367970607061
 1  8.77649216791679 -4.13373214461446 -0.44732852525253
 1  10.42424176497650 -3.65061926402640 -0.14018413191319
 1  9.40863992539254 -3.68491958345835  1.20723116581658
 1  9.53208235883588  0.04679040524052  0.45292065586559
 1  10.22792288978898 -1.23537007090709  1.43825336533653
 1  11.76097123842384 -1.85040507240724 -0.26714108730873
 1  10.84650073677368 -0.73885679057906 -1.35624695829583
 1  11.78144917841784  1.28531296049605  0.01701214601460
 1  12.37573239653965 -0.01811061966197  1.34320260046005
 1  13.32058885958596  0.57446187848785 -1.72588482718272
 1  14.42952229052905 -0.80984919761976  0.74135981598160
 1  13.82373794479448 -1.48842785908591 -1.00066638813881
 1  15.35356634503450 -0.46803000120012 -0.82407930043004
 1  13.58278647284729  2.60381500060006  0.14005221752175
 1  14.61434813511351  1.53679396859686  1.02654986888689
 1  16.24407606340634  1.46959557225723 -1.05849233993399
 1  14.86781236463646  2.49326323912391 -1.95214659435944
 1  15.29306071067107  4.36776215421542 -0.74931692979298
 1  15.95342811291129  3.77249389078908  0.60947084748475
 1  17.98289197059706  3.09458094929493 -0.87545662526253
 1  16.48647936833683  4.73731025992599 -3.16031839163916
 1  18.11441736523653  4.26161567486749 -3.14155876097610
 1  16.88497869806981  3.01619268926893 -3.14902293689369
 1  17.98455450265026  5.11907312481248  0.41824348854885
 1  18.95796331863187  5.70691484368437 -1.09857677207721
 1  17.02241379227923  6.02122162526253 -0.90870493179318
 1 -4.89396469786979 -7.50887032013201  0.07204366666667
 1 -6.36625105540554 -6.82786987358736  0.72211571907191
 1 -4.70310847944794 -6.78588016361636  1.58484294089409
 8 -7.73310090169017  7.00312681348135 -0.49790757475748
 1 -9.23860215731573  5.97112275717572 -1.77392307510751

