%nproc=4
%Mem=2GB
# td=(NStates=1) iop(3/107=0140000000,3/108=0140000000) iop(3/107=0140000000,3/108=0140000000) CAM-B3LYP/6-31G(d,p) 

TD

0 1
12 -6.64761733383338  0.51507065116512  0.15090270977098
 6 -4.43096020252025 -1.97508593039304  0.51837211421142
 6 -4.32847466286629  2.73311494459446  0.88148102970297
 6 -9.13534623932393  3.16280030413041 -0.04645414711471
 6 -9.33868196579658 -1.78509153875388 -0.56040609930993
 7 -4.67910298219822  0.38896829452945  0.42855188728873
 6 -3.85144240984098 -0.86252595939594  0.63834438983898
 6 -2.47923134173417 -0.56991875107511  0.86216827912791
 6 -2.52026199199920  1.01671181998200  1.17616977947795
 6 -3.93085934883488  1.36799688488849  0.90224499919992
 6 -2.11301758745875  1.29256105200520  2.69568413121312
 6 -1.44289303770377 -1.02812537593759 -0.14092276597660
 6  0.05517739943994 -0.80557226382638  0.35309438293829
 6  1.01447252645265 -1.13684092099210 -0.83874204800480
 8  0.78874894299430 -1.01291390389039 -2.04254524472447
 8  1.86208649524953 -2.13623392199220 -0.44567949044904
 7 -6.60176191839184  2.59500987098710  0.38641238913891
 6 -5.54837539843984  3.30265890909091  0.65526182238224
 6 -5.91525574077408  4.87402708750875  0.49383425202520
 6 -7.27869858325833  4.93755984648465  0.26193277657766
 6 -7.72203390729073  3.47013582198220  0.18800363176318
 6 -4.98839375967597  5.89510694119412  0.85603327132713
 6 -8.12102366366637  6.16914383448345  0.31962148584858
 8 -7.54981889808981  7.21239285588559  0.43017087388739
 7 -8.73743729722972  0.66753761296130 -0.46958960806081
 6 -9.60437410981098  1.79545428072807 -0.42424347664766
 6 -10.93179981028103  1.51914178527853 -0.66532231343134
 6 -10.95847020452045  0.11591249564957 -0.76533738923892
 6 -9.59135079837984 -0.35592375557556 -0.75203728042804
 6 -11.93334010931093  2.47215340844084 -0.84346899769977
 6 -12.24065718621862 -0.60066362866287 -1.07179531323132
 6 -11.86350321242124 -1.16285845104510 -2.48749154385438
 7 -6.97555403830383 -1.45894845614561  0.01847920342034
 6 -8.02186484808481 -2.23096309300930 -0.34554775277528
 6 -7.59336692179218 -3.65068239063906 -0.30721173127313
 6 -6.26378199939994 -3.56253541444144 -0.06568482908291
 6 -5.97381367006701 -2.20879969446945  0.12568875317532
 6 -8.34899342284228 -4.75119249704971 -0.56708952485249
 6 -5.12471867636764 -4.38721451955196  0.11767979367937
 8 -4.95016676537654 -5.49298983728373  0.13925443204320
 6 -3.83769749514952 -3.35541610081008  0.41179582678268
 6 -3.27358086898690 -3.76409258475848  1.82083179617962
 8 -3.85465070517052 -3.77476421122112  2.87432610241024
 8 -1.92651432633263 -3.78163446874688  1.76746668586859
 6 -1.13711223332333 -4.25452054215422  2.56820124532453
 6  2.97142903570357 -2.34487966486649 -1.60215145924592
 6  3.88814258165817 -1.26691369246925 -1.09092462476248
 6  4.93140389578958 -0.87895476687669 -1.87079328092809
 6  5.17072105590559 -1.59845297999800 -3.23182016421642
 6  6.08606243084308  0.20350269736974 -1.67423398189819
 6  7.33043173717372 -0.33216899899990 -1.04717145444544
 6  8.45044760506051  0.69537517211721 -0.63718219871987
 6  9.68426151555155 -0.07640456075608 -0.14971327702770
 6  9.38818633493349 -0.72506132083208  1.02756712551255
 6  10.99767209720972  0.81105595979598 -0.09490465206521
 6  12.34509978047805  0.09270057725773  0.31361967316732
 6  13.38913045564556  1.06540381508151  0.40949384778478
 6  14.78911524672467  0.27331060916092  0.61995665776578
 6  14.76896188428843 -0.29529180968097  1.99371929592959
 6  15.93961358975898  1.28603350535053  0.42666587188719
 6  17.34687416551655  0.63203842824282  0.27981110721072
 6  18.46175572297230  1.65574276547655  0.03782363556356
 6  19.81919412051205  0.98851734653465 -0.17914799849985
 6  19.89708951025102 -0.29071364106411 -1.61297708890889
 6  21.11705887478748  2.00259167716772 -0.31598669456946
 1 -3.15687632593259  3.55993724472447  0.85800520222022
 1 -9.90070405290529  4.14224330943094 -0.02121575547555
 1 -10.06930942254225 -2.67703810311031 -0.42703552945295
 1 -2.10282279907991 -1.11667928572857  1.83813386168617
 1 -1.62494183278328  1.68945942214221  0.75836228962896
 1 -0.73595497919792  1.32940125452545  2.69089980108011
 1 -1.89494766866687  2.13757233363336  2.87661377917792
 1 -2.50628296079608  0.47360524582458  3.79065493459346
 1 -1.76021504180418 -2.27929920292029 -0.46842462926293
 1 -1.74446961596160 -0.57321879477948 -1.19110890169017
 1  0.25181317961796  0.41860042674268  0.88648451365137
 1  0.38620490069007 -1.73519985378538  1.06001623372337
 1 -4.21125565596560  5.73520134803480  0.17188214591459
 1 -5.41250153075308  6.96172884878488  0.73753065916592
 1 -4.58463949214922  5.86001496249625  1.85688346064606
 1 -9.42074508860886  5.88797390659066  0.11042466666667
 1 -12.26663621722172 -1.61566243374337 -0.06828125532553
 1 -13.18978519351935 -0.04183778397840 -0.71995963236324
 1 -12.82855067816782 -1.72874498989899 -2.67696481358136
 1 -11.48675563936394 -0.50212279077908 -3.31714388388839
 1 -11.16120294469447 -1.98114143114311 -2.28312491989199
 1 -8.46740592389239 -4.56848340394039 -1.61062329032903
 1 -7.84690990559056 -5.68559857245725 -0.73128278017802
 1 -9.18860614061406 -4.75696765796580 -0.03988937943794
 1 -3.13475305670567 -3.72468619351935 -0.20133844064407
 1  3.40037165256526 -3.31729900370037 -1.66583230033003
 1  2.59469375817582 -2.18690460546055 -2.52061229652965
 1  3.90920824852485 -1.09562231063106  0.06812041364136
 1  4.14120717771777 -1.54191766426643 -4.09244935993599
 1  6.11238481688169 -1.22747142254225 -3.76458768266827
 1  5.35670949834983 -2.78276089038904 -3.06246042984298
 1  6.23536395829583  0.59323466086609 -2.91409402660266
 1  5.88021313071307  1.28591413921392 -1.05244950835083
 1  7.13229440834083 -1.22065026212621 -0.15382366076608
 1  7.75541093949395 -1.30872966326633 -1.53257273317332
 1  8.70349248064806  1.43612420722072 -1.37864064936494
 1  7.91676017411741  1.14008919711971  0.10460616901690
 1  9.92182462956296 -0.78899634333433 -1.09232639023902
 1  8.70847309160916 -1.54669348504851  1.37522588338834
 1  10.31028709810981 -1.04192807400740  1.39669156055606
 1  9.54362757435744  0.08960773837384  1.48727003210321
 1  11.29165280308031  1.47769052895289 -0.93698086968697
 1  10.83384313091309  1.62015089068907  0.74814869516952
 1  12.02234977717772 -0.63025546504650  1.18000168346835
 1  12.54013616761676 -0.53545176577658 -0.35810880838084
 1  13.30349521952195  1.19378892389239 -0.72676158075808
 1  13.36630867566757  1.82360661196120  1.11527731713171
 1  14.76576800260026 -0.43006052205221 -0.24138232943294
 1  14.44939483938394  0.27977837333733  2.63888666166617
 1  13.87672494599460 -0.72596026792679  2.36778427652765
 1  15.64348138123812 -1.16771035413541  2.11678815651565
 1  15.85614674957496  1.80085007840784 -0.41059103380338
 1  15.99858389098910  1.98918845434543  1.31125944914491
 1  17.52909422452245  0.16846001660166  1.13320350705070
 1  17.42890041424142 -0.25523735453545 -0.55177655505551
 1  18.24926993409341  2.12461900970097 -1.05157814611461
 1  18.77088708480848  2.34001790869087  1.00004667516752
 1  19.71540410161016  0.00173301950195  0.98261161196120
 1  19.62974129212921 -0.04900985138514 -2.92126425162516
 1  20.83515780578058 -0.67393919571957 -1.67487162056206
 1  19.35334806180618 -1.15796351475148 -1.66128420312031
 1  21.45008178677868  2.47796737583758  0.64137489108911
 1  21.65280302060206  1.30013659635964 -1.04546726172617
 1  20.73800045294529  2.74284177137714 -1.02256705300530
 1  0.07348172307231 -3.49021177057706  1.83562191019102
 1 -1.17843752475248 -5.45783305700570  2.65022565916592
 1 -1.71237525082508 -4.15608408550855  3.66704085728573
 8 -11.94265263956396  3.70740553975398 -0.82581439513951
 1 -12.61755226672667  2.27867910801080 -1.04690529552955

