%nproc=4
%Mem=4GB
# td=(NStates=1) iop(3/107=0140000000,3/108=0140000000) iop(3/107=0140000000,3/108=0140000000) CAM-B3LYP/6-31G(d,p) 

TD

0 1
12 -5.66752825942594  1.27034190849085  0.10723932913291
 6 -4.98898928612861 -2.04719318261826 -0.39853672047205
 6 -3.50972976207621  1.14751503630363  2.86552192549255
 6 -6.22004079977998  4.50981424562456  0.67363757255726
 6 -8.05821158825883  1.20058090879088 -2.41496917041704
 7 -4.30314456775678 -0.17752594439444  1.00679201800180
 6 -4.20069359685969 -1.51156485808581  0.63299564916492
 6 -3.24396752125213 -2.30561386418642  1.38895325902590
 6 -2.95929910091009 -1.31701459235924  2.63699025512551
 6 -3.54543197059706 -0.02105473317332  2.06855144034403
 6 -3.61888492789279 -1.82209565096510  3.93208590799080
 6 -1.88676386958696 -2.52591000030003  0.71614692019202
 6 -1.06711835533553 -3.51852943354335  1.43332692069207
 6  0.27280238073807 -3.84120796149615  0.58453664836484
 8  0.48882894719472 -3.36537385098510 -0.46556279047905
 8  0.98101494719472 -4.80109972727273  1.29152375967597
 7 -4.96098691499150  2.62078145504550  1.47517774947495
 6 -4.00544263406341  2.35582300400040  2.55001560486049
 6 -3.63873337703770  3.66287478967897  3.22417297349735
 6 -4.40277082978298  4.61901342964296  2.50298957025703
 6 -5.30069617381738  3.95862395759576  1.51175726802680
 6 -2.64299966306631  3.85170254605461  4.23042723212321
 6 -4.57790432103210  5.99935735623562  2.94145365016502
 8 -3.92749279727973  6.62041992999300  3.76900079998000
 7 -6.90642444234423  2.63239313511351 -0.73565522182218
 6 -6.96519923472347  3.95602521972197 -0.45068675737574
 6 -7.95705089148915  4.56533325812581 -1.13988809830983
 6 -8.49495894919492  3.54038096799680 -2.00324926932693
 6 -7.77325621612161  2.34987099589959 -1.67638358485849
 6 -8.29739273017302  5.96343625302530 -1.07954746354635
 6 -9.53175753905391  3.79477987618762 -3.12746737953795
 6 -8.82264371807181  4.13726187238724 -4.53923032703270
 7 -6.40026844584458 -0.09054407210721 -1.13641873387339
 6 -7.39078860846085 -0.02032810141014 -2.06352056275628
 6 -7.61897940514051 -1.43529523312331 -2.60235275787579
 6 -6.63152270107011 -2.15243481528153 -2.01674784048405
 6 -5.93791220662066 -1.35799936503650 -1.11101723212321
 6 -8.46072152995299 -1.80330045604560 -3.81901879807981
 6 -6.15719938703870 -3.53432901680168 -2.00775433053305
 8 -6.52586698219822 -4.54283198159816 -2.65221148624863
 6 -5.04705326742674 -3.57613566616662 -0.89908222802280
 6 -5.23203068046805 -4.69059450055006  0.14479815161516
 8 -5.70439621122112 -4.45568457655766  1.20585694909491
 8 -4.98616831503150 -5.87224842124212 -0.37253039763976
 6 -5.38533609780978 -7.01256310961096  0.33117494729473
 6  2.30297127032703 -5.08229935013501  0.64187814221422
 6  3.39369390439044 -4.09579974087409  0.92788068786879
 6  4.07959734993499 -3.23834670477048  0.12524615961596
 6  3.74227856675668 -3.01324626592659 -1.31807131163116
 6  5.07867429322932 -2.37187223482348  0.70106390519052
 6  6.49017388868887 -2.66133905910591  0.15555702310231
 6  7.71238656225623 -1.78061741724172  0.73078876937694
 6  8.98995981728173 -2.00014484808481 -0.04697247974797
 6  9.54918129982998 -3.39375001540154  0.33848039033903
 6  10.01821240034003 -0.86408664606461  0.39754226972697
 6  11.37494479687969 -0.92484209110911 -0.28544731093109
 6  12.26853454205420  0.19008363586359  0.26998384598460
 6  13.55932838863886  0.45273014291429 -0.61588635183518
 6  14.54589288828883 -0.68225762836284 -0.47237138803880
 6  14.19932587218722  1.79655582718272 -0.34626388118812
 6  15.43578776917692  2.12900092829283 -1.00700569556956
 6  16.00729331373137  3.55924067686769 -0.65336594979498
 6  17.37914316341634  3.86917475907591 -1.31242517771777
 6  17.18479106880688  3.97666255795580 -2.86201842604260
 6  17.97188659475948  5.13679894519452 -0.77176663556356
 1 -2.80370609340934  1.06623089848985  3.58400886928693
 1 -6.44611259005901  5.56986236663666  0.85186417811781
 1 -8.80357076427643  1.28570887378738 -3.10852633143314
 1 -3.64827589238924 -3.20347566296630  1.75285334613461
 1 -1.82868999289929 -1.14457211881188  2.67516879297930
 1 -3.05590536963696 -2.71917507870787  4.41697524152415
 1 -3.81371216391639 -1.04176408080808  4.77068909870987
 1 -4.73949646134613 -2.14305338623862  3.53410736123612
 1 -2.15319063276328 -2.88120763806381 -0.29247987178718
 1 -1.50353818621862 -1.64077319361936  0.46758488008801
 1 -0.71233666716672 -3.21261255685569  2.15883010171017
 1 -1.51544626622662 -4.40060719191919  1.76167796579658
 1 -1.81734184798480  3.13174269866987  3.77001291099110
 1 -2.32153314341434  4.86308351435143  4.33754001170117
 1 -2.96833982898290  3.35259625712571  5.30977598359836
 1 -5.38974203810381  6.67997219161916  2.26802212361236
 1 -10.07285641914191  2.82572322942294 -3.17528077977798
 1 -10.27149794769477  4.70584442854285 -2.66882717341734
 1 -9.67364716451645  4.26527494149415 -5.38122332463246
 1 -8.30064957435744  4.96534628002800 -4.42099205420542
 1 -8.25354520352035  3.30812017081708 -4.76013593839384
 1 -8.07377496709671 -1.21502204510451 -4.65735673397340
 1 -8.37154813781378 -2.93332673777378 -3.88999163616362
 1 -9.44423450295030 -1.35827265066507 -3.64721162786279
 1 -4.03546090349035 -3.86096092269227 -1.58638192509251
 1  2.52043317631763 -6.18642658565857  0.88779473637364
 1  2.21654239763976 -5.02796977307731 -0.34912836243624
 1  3.84597671997200 -4.07328661046105  1.91638664626463
 1  2.59253424012401 -3.33685930703070 -1.45778831983198
 1  3.81571618491849 -1.82565612491249 -1.50969343984398
 1  4.56750892489249 -3.63763749294929 -1.92892181808181
 1  4.76872691359136 -1.26367279127913  0.67624950845084
 1  5.01845037233723 -2.38554018641864  1.79052393269327
 1  6.65829335603560 -3.83805699779978  0.23610149414942
 1  6.37296745714571 -2.48594620362036 -0.86928752425242
 1  7.37195612691269 -0.62323564866487  0.40125737123712
 1  7.83192529542954 -1.83715029812981  1.70585497079708
 1  8.69426353565357 -1.74705298049805 -1.12249558765877
 1  8.66415093379338 -4.08103687508751  0.21201740934093
 1  10.35402474327433 -3.74516871897190 -0.43737385088509
 1  9.85855491689169 -3.18840993249325  1.29495993869387
 1  9.60052920352035  0.05311103730373  0.08668403220322
 1  10.01218131563156 -0.94997153105311  1.51001054105411
 1  11.80711585288529 -1.94216424832483  0.11131675847585
 1  11.16054214091409 -1.08416132103210 -1.37953928752875
 1  11.72555358885889  1.09724415361536  0.37705815061506
 1  12.28676349964996 -0.13288209680968  1.40237851805180
 1  13.31388818951895  0.35228966126613 -1.60151238993899
 1  14.85996533483348 -0.96103431613161  0.62328800880088
 1  14.17744331533153 -1.63486250255025 -0.76384270577058
 1  15.56370735913591 -0.82437563576358 -1.02176906940694
 1  13.49810800500050  2.55499011811181 -0.43927571527153
 1  14.42383908420842  1.93065335453545  0.69612682658266
 1  16.05143679947995  1.33529214191419 -0.62050854155416
 1  15.26472205560556  1.91407532033203 -1.99364074377438
 1  15.25449685428543  4.20617599559956 -1.00579257735774
 1  16.18415118521852  3.65465210661066  0.43371327172717
 1  17.84440812221222  2.95788727992799 -0.84836391599160
 1  16.54606532693269  4.70345687458746 -3.11633399319932
 1  18.01745766926693  4.20082959625963 -3.21564616971697
 1  16.76018621882188  2.96191726172617 -3.32233026762676
 1  17.98805485268527  5.06957817531753  0.18827049124913
 1  18.80172769506951  5.54518867106711 -1.21303821822182
 1  17.30830238113811  5.94899440254025 -0.91456551785179
 1 -5.22359766116612 -7.88810824392439 -0.24785832353235
 1 -6.33482791309131 -6.92438952555255  0.66382989048905
 1 -4.91547971657166 -7.16506808240824  1.20344480108011
 8 -7.90603819541954  6.76715321612161 -0.29681746574657
 1 -8.86937523462346  6.53126877177718 -2.05176085888589

