%nproc=4
%Mem=4GB
# td=(NStates=1) iop(3/107=0140000000,3/108=0140000000) iop(3/107=0140000000,3/108=0140000000) CAM-B3LYP/6-31G(d,p) 

TD

0 1
12 -5.47879938653865  1.19846472077208  0.16422502770277
 6 -5.06856724392439 -2.13061152445245 -0.42038890569057
 6 -3.32630141924192  1.21267155195520  2.73417879117912
 6 -6.13915271097110  4.61366463066307  0.55196540534053
 6 -8.17775354245425  1.19524037473747 -2.25220289378938
 7 -4.36665091839184 -0.26802499429943  1.06829816861686
 6 -4.27779130663066 -1.62269597119712  0.67508985858586
 6 -3.26780990549055 -2.33868717151715  1.49312367606761
 6 -2.84185735673567 -1.30749364026403  2.50183673977398
 6 -3.53249067646765  0.02124949724972  2.10516510171017
 6 -3.33645668506851 -1.56397983938394  3.94956765616562
 6 -2.03462865606561 -2.76960436973697  0.67269257475748
 6 -0.96351799529953 -3.52370995159516  1.46324991299130
 6  0.28907400790079 -3.89270311101110  0.59138733343334
 8  0.47747781208121 -3.44078139173917 -0.55639187338734
 8  1.10124697039704 -4.67751736903690  1.36982158945895
 7 -4.82960377667767  2.69980935783578  1.42882311401140
 6 -3.95966805660566  2.48854627632763  2.42008261156116
 6 -3.66213571727173  3.68742724492449  3.16927748394839
 6 -4.49746029872987  4.63095462376238  2.54218348964897
 6 -5.19873597779778  3.95893398859886  1.45412150445045
 6 -2.75874123722372  3.91749912571257  4.35529971937194
 6 -4.59368589918992  6.09587700820082  2.88310781558156
 8 -3.96063611161116  6.70046793479348  3.72454635453545
 7 -6.83998779867987  2.62109200500050 -0.64946660296030
 6 -6.98082079687969  3.87041665886589 -0.35060674937494
 6 -8.09513469986999  4.50173689848985 -1.14585869536954
 6 -8.59127858115811  3.50942787268727 -2.04714365876588
 6 -7.85728461896190  2.38286429522952 -1.67295324182418
 6 -8.58887187808781  5.94797470687069 -1.06827633643364
 6 -9.61557592089209  3.81032143034303 -3.07430206300630
 6 -8.85371682538254  4.03664181038104 -4.47924432843284
 7 -6.45076349534953 -0.15329034673467 -1.02796788878888
 6 -7.52190171977198 -0.04295036363636 -1.94165837653765
 6 -7.74351185838584 -1.22871457505751 -2.59262178477848
 6 -6.73992354115412 -2.15794536633663 -2.04842100780078
 6 -5.93706212161216 -1.35707927302730 -1.14688081848185
 6 -8.59006446424642 -1.72890301630163 -3.76532342854285
 6 -6.16854052115212 -3.52188777267727 -2.00333388848885
 8 -6.55154955045505 -4.49649734813481 -2.65336160126013
 6 -5.06154471657166 -3.52907095969597 -0.96129844964496
 6 -5.32933041044104 -4.62189763086309  0.05362903470347
 8 -5.64591036263626 -4.37116612471247  1.19363572697270
 8 -5.05988568676868 -5.83397459385939 -0.50948409300930
 6 -5.32888045224523 -6.93798565186519  0.35331716151615
 6  2.31123209640964 -5.03318443864386  0.52856681108111
 6  3.41850638563856 -4.11866202710271  0.88498639843984
 6  4.02356174637464 -3.25148801890189  0.04337797279728
 6  3.86371070997100 -3.28230317161716 -1.42655215971597
 6  5.14214063986399 -2.32515756335634  0.61124492329233
 6  6.54666953825383 -2.63932685788579  0.05113658105811
 6  7.65563088668867 -1.91833118861886  0.68303399389939
 6  9.04787560886089 -2.01925675927593 -0.06339412191219
 6  9.63665004670467 -3.41898253865387  0.21939848214821
 6  10.10164074317432 -1.02728296569657  0.50179269476948
 6  11.46918422082208 -0.91952155905591 -0.24172293849385
 6  12.28274596319632  0.20715534303430  0.29469631723172
 6  13.59678213401340  0.29357422732273 -0.57668243144314
 6  14.59973827282728 -0.89423882648265 -0.30708485938594
 6  14.29667560716072  1.56101227282728 -0.13545280008001
 6  15.52348653905390  2.20636866506651 -0.99257425242524
 6  16.06598918331833  3.48888364116412 -0.48798941214121
 6  17.29590483958396  4.00126796839684 -1.33241717691769
 6  17.05685827552755  4.10293518521852 -2.84962718691869
 6  17.86184559065907  5.29000426572657 -0.80507996689669
 1 -2.57606332913291  1.17261153655366  3.65272574097410
 1 -6.27772575137514  5.62126750715071  0.51223021472147
 1 -8.93800420762076  1.05260556345635 -2.84182966176618
 1 -3.79640070487049 -3.03544886028603  1.97386544734473
 1 -1.65796292019202 -1.15494315591559  2.62882415851585
 1 -2.74178395749575 -2.46095925712571  4.22872641664166
 1 -3.21302209490949 -0.85460536493649  4.81857388718872
 1 -4.41128364006401 -2.02541162206221  3.90886483698370
 1 -2.34957027072707 -3.34429394669467 -0.22027265106511
 1 -1.62814064646465 -1.81733084938494  0.43735185678568
 1 -0.58851428492849 -3.26637793339334  2.39527374607461
 1 -1.46051077267727 -4.45469260046005  1.70193199119912
 1 -1.83648376217622  3.48008753315331  4.08828473817382
 1 -2.63530452055206  4.86709391539154  4.60912717041704
 1 -3.13447644264426  3.32771376887689  5.25151015701570
 1 -5.58725178907891  6.65020921532153  2.40762608400840
 1 -10.36106524002400  2.92518317541754 -3.20291354305431
 1 -10.32279307720772  4.60260410451045 -2.91505179587959
 1 -9.82502230203020  3.88394680868087 -5.21111631393139
 1 -8.28421793119312  4.92032177757776 -4.55096505150515
 1 -8.31169101810181  3.25002436123612 -4.74131405620562
 1 -8.25229281888189 -0.97792833573357 -4.60403140144014
 1 -8.23286426942694 -2.75438884398440 -3.91225386238624
 1 -9.75361544104410 -1.64048087148715 -3.50535744244424
 1 -4.21598895629563 -3.89780460706071 -1.40868415531553
 1  2.59021015401540 -5.97929587258726  1.27349330623062
 1  2.00138088148815 -4.97263423952395 -0.52129557915792
 1  3.64488661096110 -4.05724500630063  1.96190119771977
 1  2.83212819951995 -3.71832745384538 -1.82609515051505
 1  3.93287790109011 -2.24744830413041 -1.63676614711471
 1  4.79814198819882 -3.68538226742674 -1.85946487238724
 1  4.90916095699570 -1.19827625162516  0.64020590409041
 1  5.10819934723472 -2.63152478487849  1.71741662196220
 1  6.80369789648965 -3.88980217231723 -0.03728584458446
 1  6.50162032243224 -2.18432604160416 -0.90952154765477
 1  7.52676160746075 -0.78252157725773  0.45324256975698
 1  7.76014811771177 -2.08859544264426  1.73317770307031
 1  8.74951906120612 -1.82538081328133 -1.08133147124712
 1  8.83912843154315 -4.28611738313831 -0.11451524392439
 1  10.68467780858086 -3.55668987108711 -0.22009212271227
 1  9.73663272467247 -3.67490858235824  1.46348679137914
 1  9.85651480208021  0.13896962316232  0.54362972677268
 1  10.24938503600360 -1.42385891979198  1.61073061306131
 1  12.04776991829183 -1.90640067196720 -0.27002137533753
 1  11.10982706940694 -0.78956186108611 -1.15796713031303
 1  11.70393142664267  1.21777620682068  0.03611405620562
 1  12.52730755405540  0.05642683408341  1.42763104330433
 1  13.27980478117812  0.56229066136614 -1.57272951165117
 1  14.48963830213021 -1.11518973167317  0.74685036503650
 1  14.28969454045404 -1.83657267356736 -0.72180850235023
 1  15.57794878327833 -0.69833303150315 -0.47337422992299
 1  13.46610480468047  2.31463608270827 -0.21064285198520
 1  14.41515821612161  1.62025231443144  0.89681689558956
 1  16.23159481528153  1.37748636133613 -0.94853134383438
 1  15.12897848124813  2.30016392919292 -2.08524990469047
 1  15.13850525512551  4.32746812481248 -0.62740473857386
 1  16.33071584168417  3.49960660206021  0.54902480288029
 1  17.99056273767377  3.12905439663966 -0.92681176077608
 1  16.29694041444144  4.93179970887089 -3.01224358415842
 1  17.95208113161316  4.35344485778578 -3.34614922002200
 1  16.73300350055005  3.10286135613561 -3.26106414101410
 1  18.44602064926492  5.28441965946595  0.11871353555356
 1  18.69596711901190  5.70528468066807 -1.42509942434243
 1  16.92061361226122  6.15650515361536 -0.91518557985799
 1 -4.76341164256426 -7.72948238133813 -0.35091862956296
 1 -6.57237166746675 -7.03442052865287  0.48851235873587
 1 -4.73794196279628 -6.92694427002700  1.27975243184318
 8 -7.94249184078408  6.76032253305330 -0.48633641764176
 1 -9.34284258135814  5.91464710961096 -1.83462914571457

