%nproc=4
%Mem=4GB
# td=(NStates=1) iop(3/107=0140000000,3/108=0140000000) iop(3/107=0140000000,3/108=0140000000) CAM-B3LYP/6-31G(d,p) 

TD

0 1
12 -5.67030853745374  1.21234610891089  0.18232683788379
 6 -5.00588097529753 -2.07334579787979 -0.32490935773577
 6 -3.34528331743174  1.17930821562156  2.73179855315532
 6 -6.32862165786579  4.45959922412241  0.71632184098410
 6 -8.07223299039904  1.10747159785979 -2.39691736523652
 7 -4.51925617891789 -0.20854904670467  1.21203254205421
 6 -4.39161268876888 -1.58488218981898  0.84878722832283
 6 -3.26075920042004 -2.35085838863886  1.58987335103510
 6 -2.95380855185519 -1.29474236513651  2.75412196829683
 6 -3.67390481788179 -0.01551417911791  2.28235282048205
 6 -3.69013205260526 -1.76356979837984  4.05708840824082
 6 -2.06533172637264 -2.63136054535454  0.74651995749575
 6 -0.91424306780678 -3.54150173077308  1.46334992299230
 6  0.20607570807081 -3.80812465316532  0.55685388008801
 8  0.47978804310431 -3.32948026162616 -0.53705994019402
 8  1.06705355105511 -4.65455507280728  1.25503011031103
 7 -4.96783760006001  2.58145752265227  1.52528275997600
 6 -4.07769985978598  2.39000642234223  2.42029263256326
 6 -3.83543304700470  3.65812431463146  3.15025558175818
 6 -4.63175372807281  4.61717324562456  2.58634790609061
 6 -5.33986009020902  3.93629172437244  1.47246333863386
 6 -2.95063042614261  3.83807118291829  4.31070525992599
 6 -4.80168669926993  5.98700612111211  2.99953945874587
 8 -4.14114416241624  6.54961284928493  3.85471937183718
 7 -6.96136993689369  2.56060595639564 -0.68311996829683
 6 -6.99994270907091  3.94644426162616 -0.41698338703870
 6 -7.90563574997500  4.58992571737174 -1.25884999449945
 6 -8.40512996629663  3.67329425932593 -2.18429737413741
 6 -7.79319821032103  2.34505051385139 -1.80751669816982
 6 -8.17153014391439  6.12619252865287 -1.20719022782278
 6 -9.20401476477648  3.98034843304330 -3.37593222602260
 6 -8.41378283198320  4.21719986618662 -4.62080848484849
 7 -6.34982340134013 -0.14223924162416 -1.15410050205021
 6 -7.38004753435344 -0.08864493309331 -2.07526173687369
 6 -7.55605311251125 -1.40429213281328 -2.70826334893489
 6 -6.63537308610861 -2.15679525132513 -2.06746291199120
 6 -5.94337275267527 -1.42118568366837 -1.10791692209221
 6 -8.43312877067707 -1.63613373937394 -3.90465736193619
 6 -6.17089075617562 -3.59217480138014 -1.96717027212721
 8 -6.48095249074907 -4.55903360176018 -2.56809307440744
 6 -5.00187874997500 -3.54528258085809 -0.90191251105110
 6 -5.30952843024302 -4.61187662876288  0.23588726052605
 8 -5.73027879947995 -4.44208321642164  1.34973133653365
 8 -4.87474717291729 -5.79946114251425 -0.31807495209521
 6 -5.22614017821782 -6.92798465176518  0.63955578537854
 6  2.22783375657566 -5.05990711091109  0.56946090049005
 6  3.38047258225823 -4.25689585048505  0.95800370017002
 6  4.01876126632663 -3.34691756185619  0.23335697069707
 6  3.71670600950095 -3.08491343264326 -1.31400090459046
 6  5.21475790159016 -2.57269231683168  0.73556735553555
 6  6.48266313761376 -2.74602752795280 -0.04345287788779
 6  7.74389971357136 -1.92545190069007  0.45345103560356
 6  9.10186100740074 -2.04030886448645 -0.14925270777078
 6  9.59229561126113 -3.50678131853185  0.22778932123212
 6  10.07739831893189 -0.90406064346435  0.33978649414941
 6  11.37861516391639 -0.88170777767777 -0.46437520372037
 6  12.24711239983998  0.29284391189119  0.10634748234823
 6  13.49947240304030  0.52027689758976 -0.80192495569557
 6  14.50354865386539 -0.62696209880988 -0.66838098899890
 6  14.19556549614961  1.82369854145415 -0.31646090089009
 6  15.44281847224722  2.18407643584358 -1.15953094809481
 6  16.04946753115312  3.48050280308031 -0.57358797199720
 6  17.44239948904891  3.82873071467147 -1.22943687888789
 6  17.22257484718472  4.13146803850385 -2.75308753295330
 6  17.97899730583058  5.11968723402340 -0.43515297419742
 1 -2.62899862266227  1.35115939133913  3.27752822122212
 1 -6.46451443024302  5.51705708610861  0.78192718441844
 1 -8.65531593879388  1.12729303220322 -3.26215169396940
 1 -3.61379244404440 -3.33320863626363  2.10640870167017
 1 -2.00837796169617 -1.29067672927293  2.98221949804981
 1 -3.30479025812581 -2.64616777797780  4.51858540254025
 1 -3.55022581528153 -0.97231713611361  4.81375340514051
 1 -4.67683019471947 -2.04813389428943  3.86250020052005
 1 -2.38250356405641 -3.16931644894489 -0.01325194899490
 1 -1.53147097949795 -1.58950806710671  0.34719284088409
 1 -0.46504193769377 -3.32852414801480  2.38290250895089
 1 -1.53305802740274 -4.45234236543654  1.84208600660066
 1 -2.08103821762176  3.65142466686669  3.89222513221322
 1 -3.00308129822982  4.82110931693169  5.02802906060606
 1 -3.34180717571757  2.82816381388139  5.00332533853385
 1 -5.70662372627263  6.53641783618362  2.57855317671767
 1 -9.93004213771377  3.10621127822782 -3.36434968666867
 1 -10.13100389828983  4.88968281238124 -3.25733602430243
 1 -9.02681248104811  3.98230664466447 -5.53763896619662
 1 -7.92438194759476  5.21827157255726 -4.65387534253425
 1 -7.67464731373137  3.34939429822982 -4.65830575537554
 1 -8.31083867346735 -1.22461300420042 -4.87296829512951
 1 -8.49946092909291 -2.70121352645265 -4.17947058405841
 1 -9.49052913241324 -0.99295611901190 -3.58943585028503
 1 -3.94992234963496 -3.91263609020902 -1.32987627452745
 1  2.20150128312831 -6.13893183618362  0.89999595649565
 1  2.06577732113211 -5.26268324442444 -0.57176062566257
 1  3.70303242554255 -4.50070935273527  1.84382939053905
 1  2.80620560726073 -3.30989661076108 -1.63822636363636
 1  4.28404301760176 -1.95096865616562 -1.64372684318432
 1  4.57923009700970 -3.56771050025002 -1.88659758565857
 1  4.91511155205520 -1.53453987798780  0.65162704620462
 1  5.39572810011001 -2.69765139753975  1.84385926622662
 1  6.55723325002500 -3.89249244134413  0.02900078407841
 1  6.31646180658066 -2.82047965696570 -1.13492408790879
 1  7.50431936323632 -0.84104742984298  0.08700594609461
 1  7.66968907180718 -1.90836741984198  1.46884126942694
 1  8.88902301160116 -1.94570284548455 -1.23741707980798
 1  8.78496301500150 -4.26079485088509 -0.01745553795379
 1  10.57956729752975 -3.95019922202220 -0.18676879037904
 1  9.62054111551155 -3.77189828132813  1.24498494119412
 1  9.38226737733773 -0.01172544634463  0.25969133293329
 1  10.45696579407941 -1.22504903880388  1.49920946094609
 1  11.93360850215021 -1.90306033793379 -0.52298667186719
 1  11.11798788548855 -0.59548245314531 -1.54652598619862
 1  11.62894392789279  1.28324275347535  0.47629807460746
 1  12.60164498779878 -0.05844465306531  1.07155543574357
 1  13.37337413811381  0.51152558485849 -1.86954919361936
 1  14.92602194049405 -0.57935614831483  0.39368504850485
 1  14.28807437843784 -1.61189020532053 -0.91583790529053
 1  15.32374336273627 -0.36304950315031 -1.33713060556056
 1  13.55898409260926  2.62700731983198 -0.53453524122412
 1  14.29981668196820  1.76612690189019  0.67760497439744
 1  16.22724438023802  1.38789740244024 -1.12036852755276
 1  15.12642822622262  2.40304421722172 -2.26040742044204
 1  15.36576798139814  4.28189356735674 -0.91454345244524
 1  16.08870164026403  3.27674431583158  0.61309120952095
 1  17.98892257365737  3.03647513871387 -1.12650172977298
 1  16.36441716211621  4.96914344324432 -2.82611497129713
 1  18.19654557805780  4.67847736103610 -3.09318392349235
 1  17.06788698889889  3.26529759975998 -3.37761579617962
 1  18.08612465966597  4.86679789728973  0.66432809700970
 1  19.09471699399940  5.33487763996400 -0.89936685108511
 1  17.34780633153315  5.91583108620862 -0.67282134343434
 1 -4.85447074847485 -7.76595602870287  0.00075653795380
 1 -6.45231966226623 -6.87897498409841  0.79300280778078
 1 -4.71523969256926 -6.86242781838184  1.32850730733073
 8 -7.81089868146815  6.80919742054205 -0.36532431643164
 1 -8.79058735583558  6.45846149104911 -2.15844152695270

