%nproc=4
%Mem=4GB
# td=(NStates=1) iop(3/107=0140000000,3/108=0140000000) iop(3/107=0140000000,3/108=0140000000) CAM-B3LYP/6-31G(d,p) 

TD

0 1
12 -5.66872837943794  1.19295416971697  0.11614021922192
 6 -4.99511989918992 -2.14468293159316 -0.31656852365237
 6 -3.45463425252525  1.23319360416042  2.88368374167417
 6 -6.25371416711671  4.59725298949895  0.61219142794279
 6 -7.92540830793079  1.09776062676268 -2.42617029052905
 7 -4.34060831413141 -0.29058725052505  1.13002434123412
 6 -4.21818534603460 -1.59249295089509  0.68775112471247
 6 -3.19225234973497 -2.29119242204220  1.51209557325733
 6 -2.97973114411441 -1.27594048494849  2.75709226532653
 6 -3.58988641604160 -0.02135476317632  2.19314389958996
 6 -3.57584062346235 -1.73299674107411  4.04096679607961
 6 -1.91967716091609 -2.69504691399140  0.73108841434143
 6 -0.95700734423442 -3.54679225982598  1.51316490449045
 6  0.30567566806681 -3.97857169786979  0.65862405710571
 8  0.54346441074107 -3.50881819541954 -0.43211944614461
 8  1.12713955965597 -4.82628224552455  1.30822542984298
 7 -5.01992280858086  2.68992836973697  1.51573180488049
 6 -4.05015710551055  2.43527094879488  2.46350695399540
 6 -3.81487099079908  3.67621612381238  3.25054561076108
 6 -4.49369992269227  4.69609113741374  2.59622889418942
 6 -5.25733183738374  4.05443353855386  1.46804289658966
 6 -2.81986734983498  3.74324169997000  4.26219040844084
 6 -4.49123565416542  6.14050147064706  2.85902540734073
 8 -3.85595564356436  6.69697758575858  3.67658155805581
 7 -6.90030383028303  2.65164506030603 -0.75748740504050
 6 -7.00919363416342  3.98908852605261 -0.38926061476148
 6 -7.93847903430343  4.58551527632763 -1.23938804830483
 6 -8.46013546684668  3.62224915481548 -2.08247719211921
 6 -7.78563745424542  2.39476548534853 -1.76991293779378
 6 -8.32726571747175  5.95163507290729 -1.13109261806181
 6 -9.46739110241024  3.92210260846085 -3.13710834363436
 6 -8.71730318401840  4.05464361056106 -4.52868927292729
 7 -6.32313073207321 -0.06929194689469 -1.16773186518652
 6 -7.25084461406141 -0.02329839843984 -2.06919112981298
 6 -7.53540104730473 -1.28521022462246 -2.64161668426843
 6 -6.61235078387839 -2.16068564036404 -1.95244140984098
 6 -5.92647106250625 -1.34969853495350 -1.10594672507251
 6 -8.37550300810081 -1.60747087308731 -3.77191408760876
 6 -6.16876054315432 -3.52443802770277 -1.96942049714971
 8 -6.46906130163016 -4.50357805620562 -2.59911617671767
 6 -4.91021958405841 -3.53255130773077 -0.88046036583658
 6 -5.24541201860186 -4.61167660876088  0.13969764156416
 8 -5.72608838043804 -4.44942395049505  1.27475383878388
 8 -4.80352005020502 -5.89446064246425 -0.34842798739874
 6 -5.18772633683368 -6.92133398669867  0.51796362616262
 6  2.29233020622062 -5.17490861106111  0.71447540194019
 6  3.35682021702170 -4.03171333223322  0.98246614641464
 6  3.95830522072207 -3.30556342644264 -0.01073743874387
 6  3.54494883378338 -3.26162110341034 -1.42644214871487
 6  5.07548397419742 -2.34133918151815  0.47010080888089
 6  6.56218108940894 -2.85003792899290 -0.06232476507651
 6  7.64465978957896 -1.80519987548755  0.30213590409041
 6  9.04886570787079 -2.01933676727673 -0.23533131563156
 6  9.52664904660466 -3.53992463286329  0.01192773507351
 6  9.92026260536054 -0.95514575197520  0.30134264976498
 6  11.23001030343034 -0.83301290819082 -0.45557432363236
 6  12.15364305290529  0.23759838733873  0.14518136573657
 6  13.54345680148015  0.41356622652265 -0.63109787298730
 6  14.44112241124112 -0.67653705630563 -0.37564171507151
 6  14.11696763636364  1.69301547314731 -0.17276653145315
 6  15.40796498689869  2.06207423562356 -0.91938693369337
 6  15.96723930833083  3.49883463626363 -0.61465207840784
 6  17.24504975407541  3.95553339493949 -1.15013894909491
 6  17.12144473417342  4.06545143684368 -2.61018324252425
 6  17.71212061816182  5.26508177347735 -0.56827628652865
 1 -2.53492921572157  1.29400367576758  3.66679714811481
 1 -6.34227220602060  5.75892127252725  0.83647263896390
 1 -8.53687409460946  1.12375267816782 -3.22634811361136
 1 -3.63550461526153 -3.20071538693869  1.85692375317532
 1 -1.87713483738374 -1.13465112671267  2.91289256535654
 1 -2.95910568966897 -2.67055021622162  4.31043458745875
 1 -3.46800759345935 -0.94082398679868  4.64451648144814
 1 -4.52946545824583 -2.06519560046005  3.86203015351535
 1 -2.19190450415042 -3.36409592689269 -0.05030565436544
 1 -1.51812964536454 -1.74073318961896  0.32547066866687
 1 -0.79328476197620 -3.05759705530553  2.25888010671067
 1 -1.45128985058506 -4.45475260646065  1.81379317731773
 1 -1.71840195399540  3.61352087648765  4.12568847854785
 1 -2.94150514061406  4.79281648764876  4.69038529622962
 1 -2.96699969496950  3.05575657315732  5.18868387438744
 1 -4.84710777467747  6.75964015841584  2.15253057445745
 1 -10.26741587508751  2.99294995209521 -3.33610686238624
 1 -10.13263406130613  4.63652749684968 -2.90784107480748
 1 -9.55644544434444  4.09542795679568 -5.30502570487049
 1 -7.74218372777278  4.70261000640064 -4.91761171617162
 1 -8.12865271427143  3.16362572137214 -4.62559248404841
 1 -8.21946953655366 -0.90446098899890 -4.52269326762676
 1 -8.52074305730573 -2.76149955505551 -3.90322295929593
 1 -9.55404548404841 -1.15560238363836 -3.69650655735574
 1 -4.02528988638864 -3.81721654825483 -1.47300058695870
 1  2.59444057705771 -6.26168411141114  1.05568152505251
 1  2.19341008440844 -5.29105608170817 -0.28860230983098
 1  3.35451757405741 -3.95229451125113  2.10617562516252
 1  2.48765375207521 -3.55730135123512 -1.39235177617762
 1  3.76102071537154 -2.17069062836284 -1.97439991049105
 1  4.04485665966597 -4.12206593579358 -2.18837776367637
 1  4.93857389828983 -1.37508393239324  0.04124600810081
 1  5.02970149744975 -2.32972460486049  1.44008888918892
 1  6.75630315701570 -3.75748894099410  0.26337422142214
 1  6.44590475087509 -3.04989259825983 -1.21227182268227
 1  7.16781571287129 -0.84903822892289  0.01705895139514
 1  7.66377848074807 -1.86459304240424  1.45901028632863
 1  8.93722783208321 -2.11247952315232 -1.25529886798680
 1  8.70633515221522 -4.29864863626363 -0.39463325572557
 1  10.59335867666767 -3.71699590169017 -0.26791690519052
 1  9.57074613601360 -3.47853894539454  1.22564300700070
 1  9.16192534313431  0.10662638883888  0.36188155195520
 1  10.09110920842084 -1.01053758765877  1.47359689968997
 1  11.81886702800280 -1.75896592849285 -0.76494086728673
 1  10.76314240094009 -0.55863876877688 -1.39810114371437
 1  11.72419345284528  1.32721715091509  0.03587403220322
 1  12.29986480978098  0.22570376177618  1.05143342354235
 1  13.41398819951995  0.50366479877988 -1.63500573927393
 1  14.77632697099710 -0.78636684938494  0.68538421842184
 1  13.86181175217522 -1.43564258055806 -0.62182850435044
 1  15.18397938633863 -0.64968816701670 -1.15815270777078
 1  13.45700389458946  2.47353197229723 -0.18312009970997
 1  14.28083478377838  1.54235452465247  0.93470068396840
 1  16.32374403020302  1.39220783348335 -0.63940043074307
 1  15.18456403980398  2.04396830963096 -1.95683706340634
 1  15.22497390199020  4.24648002600260 -0.68453045114511
 1  16.04406717681768  3.49887652905290  0.45614551495149
 1  17.93736741814181  3.04524601580158 -0.94870394999500
 1  16.19807052745275  4.71654818371837 -3.08591095089509
 1  17.98473439693970  4.82094160746075 -3.13699830493049
 1  17.11149134933493  3.04002507250725 -3.11147918251825
 1  17.95462150935093  5.09939115661566  0.60695235943594
 1  18.62920044234424  5.75517967016702 -0.99744665906591
 1  16.98674022492249  6.09191869496950 -0.69989405070507
 1 -4.83952925432543 -7.79531896499650 -0.01756529422942
 1 -6.27222165246525 -7.24153123972397  0.36550005750575
 1 -4.66373454205421 -6.77696927252725  1.62266672327233
 8 -7.88546613821382  6.73409991079108 -0.36920470447045
 1 -8.99982827992799  6.21823746864686 -1.94627030983098

