%nproc=4
%Mem=4GB
# td=(NStates=1) iop(3/107=0140000000,3/108=0140000000) iop(3/107=0140000000,3/108=0140000000) CAM-B3LYP/6-31G(d,p) 

TD

0 1
12 -5.55344685128513  1.28396327062706  0.12046065126513
 6 -4.98190857805781 -2.11483994729473 -0.34931179797980
 6 -3.56344513361336  1.22034231903190  2.87317269056906
 6 -6.09464826052605  4.55410867506751  0.55855606440644
 6 -7.99093486058606  1.15667651835184 -2.33563123662366
 7 -4.39229348264826 -0.30715890769077  1.16897823662366
 6 -4.31798532603260 -1.64346804840484  0.77181953155316
 6 -3.25331845634563 -2.44076737953795  1.57021138483848
 6 -2.94210738173817 -1.40695358625863  2.77960451655166
 6 -3.59689711711171 -0.08305093279328  2.23461804700470
 6 -3.53230627002700 -1.84779822122212  4.11296399579958
 6 -2.03038823202320 -2.72643005230523  0.82235754125413
 6 -0.98908055155516 -3.64804238483848  1.56632022002200
 6  0.16853195369537 -3.98925276597660  0.62949114381438
 8  0.31390145444544 -3.65088240184018 -0.56647288148815
 8  0.97387423312331 -4.76416603390339  1.36390099739974
 7 -4.88543936023602  2.67376675357536  1.54303453515352
 6 -4.00940303010301  2.41581900360036  2.52508311161116
 6 -3.64640414411441  3.66378488068807  3.16704726092609
 6 -4.34272482518252  4.70098162646265  2.42760203150315
 6 -5.15345144934493  3.99270736593659  1.49207529982998
 6 -2.79806516961696  3.84078145394539  4.40747493689369
 6 -4.52173870447045  6.12201962246225  2.92775228002800
 8 -4.02883293129313  6.61770965896590  3.90976487638764
 7 -6.87618141804180  2.59722961876188 -0.71832348864886
 6 -6.92917563236324  3.89655927312731 -0.40467215591559
 6 -7.91210639703970  4.52626935173517 -1.21272538203820
 6 -8.43537299059906  3.68724565446545 -1.97390633503350
 6 -7.69756864736474  2.32151816061606 -1.70524647114711
 6 -8.29744273517352  6.03127303670367 -1.27092660146015
 6 -9.40715507880788  3.92535293349335 -3.19170380318032
 6 -8.65695714941494  4.02530067626763 -4.49665606960696
 7 -6.29003742274227 -0.09578459615962 -1.07595268726873
 6 -7.26704623422342 -0.10386645524552 -2.08276248694869
 6 -7.51106861406141 -1.31279298289829 -2.69069159175918
 6 -6.63479302810281 -2.17042661446145 -2.08478464416442
 6 -5.88443685908591 -1.37080064516452 -1.09024515491549
 6 -8.40996645444544 -1.63071319731973 -3.89672656885689
 6 -6.08385205230523 -3.52555813971397 -2.10342389748975
 8 -6.47492188768877 -4.52224992339234 -2.68835510061006
 6 -4.99071763386339 -3.56022407500750 -0.86045836563656
 6 -5.32039951735173 -4.58714415551555  0.04847851965197
 8 -5.83940971257126 -4.29348835693569  1.18850521392139
 8 -5.07266696489649 -5.79562075847585 -0.31200434503450
 6 -5.44381194539454 -6.92521437473747  0.61505333513351
 6  2.24597557075708 -5.21783290349035  0.70332428682868
 6  3.39070360536054 -4.20233039393939  0.93901180098010
 6  3.98083747394739 -3.31459432953295  0.03545718071807
 6  3.77817215611561 -3.31876681798180 -1.46696620112011
 6  5.19707613341334 -2.52708775637564  0.50842464126413
 6  6.54984985628563 -2.79614253945395 -0.12616114871487
 6  7.59239456305631 -1.87047640314031  0.59091478197820
 6  8.94398521982198 -2.02926776037604 -0.10852863536354
 6  9.50074645634563 -3.49392003240324  0.20677722002200
 6  9.89333991309131 -0.88404864226423  0.32965548104810
 6  11.31551885428543 -0.86984659155916 -0.41624039023902
 6  12.22889057765776  0.38363299079908  0.01900874847485
 6  13.50538299409941  0.69150402030203 -0.65019978317832
 6  14.35918421742174 -0.67316671927193 -0.56372052295230
 6  14.27304324392439  1.85737190879088 -0.29356861166117
 6  15.50829501990199  2.22703073127313 -0.98572356735674
 6  15.97893047744774  3.68791354415442 -0.62993360656066
 6  17.36748199729973  4.01067890949095 -1.17504143934393
 6  17.15026761646164  4.01048594029403 -2.66220844504450
 6  17.84181358745874  5.28096336163616 -0.54480393929393
 1 -2.58616433923392  1.00031430683068  3.72006247464746
 1 -6.43906188498850  5.61181656205621  0.68226721842184
 1 -8.85489589678968  1.13767407030703 -3.05627110591059
 1 -3.68596966176618 -3.39263457885789  1.93088114891489
 1 -1.92268939283928 -1.05478313991399  2.81038231433143
 1 -3.01296107520752 -2.61034419561956  4.61580512451245
 1 -3.99387017971797 -0.93651355575558  4.66332836263626
 1 -4.50636314801480 -2.38341742264226  3.57800175067507
 1 -2.12933824752475 -3.09002852015202 -0.27725834963496
 1 -1.41454928732873 -1.79951906820682  0.59212733433343
 1 -0.65917135063506 -3.43700499609961  2.55555977467747
 1 -1.47525224682468 -4.68938606980698  1.64586638463846
 1 -1.67697781158116  3.41101062546255  4.18316422612261
 1 -2.83594458455846  4.98382558855886  4.61366762446245
 1 -3.22414540954095  3.27011800930093  5.12668767476748
 1 -5.14564762866287  6.55471966636664  2.35920124152415
 1 -10.08546768026803  3.05005566266627 -3.46388964066407
 1 -9.93901469936994  4.87881172527253 -3.10521081178118
 1 -9.50564036383638  4.10958937293729 -5.24429963226323
 1 -8.12218172757276  4.99843958935894 -4.43199315431543
 1 -8.17151700070007  3.15381474027403 -4.91125104990499
 1 -8.13842143174318 -1.06879742264226 -4.78950994929493
 1 -8.45552653565357 -2.71180458555856 -3.98765140214021
 1 -9.40884096359636 -1.38657548094809 -3.55967287398740
 1 -4.35626298369837 -4.06890171677168 -1.43227651455146
 1  2.52724385738574 -6.14589253225323  1.38622457935794
 1  2.08616936033603 -5.29018599469947 -0.35976942654265
 1  3.72393451575158 -4.34121340314031  1.87793280088009
 1  2.70663565026503 -3.66937255835584 -1.45894843584358
 1  3.75541015431543 -2.27383094239424 -1.92329479998000
 1  4.17816999099910 -4.15054878407841 -2.22907183308331
 1  5.01109115001500 -1.42129855385539  0.30469235273527
 1  5.23268179547955 -2.45762739513951  1.42982786308631
 1  6.81126865356536 -3.81751494359436  0.01609949394939
 1  6.53216337673767 -2.49068667766777 -1.22526312181218
 1  7.32216114741474 -0.86785011011101  0.42484973047305
 1  7.47069917281728 -1.81386796989699  1.67476186148615
 1  8.57459156845685 -2.16883515871587 -1.27170050815082
 1  8.77094161286129 -4.20041881328133  0.05559176677668
 1  10.32857219801980 -3.60680488258826 -0.50939105260526
 1  9.78384744614461 -3.59283037453745  1.27465790849085
 1  9.43373252385239  0.19705543174317  0.14521988578858
 1  9.84542463996400 -0.73669020292029  1.41251079107911
 1  11.74869001030103 -1.90833086498650 -0.49863423662366
 1  11.07881396809681 -0.73761666656666 -1.54637597119712
 1  11.65179621312131  1.41409583878388  0.01943238803880
 1  12.24355917921792  0.27500869226923  1.31730001020102
 1  13.25561236193619  0.91049548184818 -1.70575281398140
 1  14.58706804510451 -0.92928114081408  0.56554223422342
 1  13.73626919791979 -1.49864888118812 -0.97923424492449
 1  15.44787577597760 -0.74783798199820 -1.24841173367337
 1  13.63842203640364  2.70661528062806 -0.32904469216922
 1  14.45388208850885  1.92748303750375  0.83775098899890
 1  16.30713236903690  1.50301891459146 -0.62398888958896
 1  15.52642822622262  2.21379529232923 -2.25424680438044
 1  15.01097250185019  4.36508188618862 -0.91323332143214
 1  16.09507227732773  3.70416705810581  0.39077897829783
 1  18.12348603000300  3.08157964916492 -0.78951803140314
 1  16.31222194259426  4.55844237313731 -3.02360472027203
 1  18.04393031653165  4.52024153745375 -3.21758636373637
 1  17.00161036123612  2.96859792979298 -2.96534456905691
 1  17.95399144634463  5.34033525102510  0.49011067526753
 1  18.72587010931093  5.60232438463846 -1.02040895529553
 1  17.19029057995800  6.14297380048005 -0.92633669496950
 1 -5.09462476387639 -7.93114254735474  0.27143360566057
 1 -6.59945437573757 -6.94909199579958  0.60391389888989
 1 -5.01077924652465 -6.80153172877288  1.51125558215822
 8 -7.67741533313331  6.89808630943094 -0.60774855885589
 1 -9.16728502560256  6.05450109500950 -1.96820250305030

