%nproc=4
%Mem=4GB
# td=(NStates=1) iop(3/107=0140000000,3/108=0140000000) iop(3/107=0140000000,3/108=0140000000) CAM-B3LYP/6-31G(d,p) 

TD

0 1
12 -5.64552605920592  1.17570244454445  0.32383098829883
 6 -4.96602698989899 -2.07134559785979 -0.33844071087109
 6 -3.33402219131913  1.13383366816682  2.66333170647065
 6 -6.16584538023802  4.44307757195720  0.67225743454345
 6 -8.03570933803380  1.19418026872687 -2.35063273677368
 7 -4.39430368366837 -0.33461165296530  1.09328066686669
 6 -4.23105663316332 -1.67313101470147  0.59950229982998
 6 -3.22808593309331 -2.37924122692269  1.52281664536454
 6 -2.98336150715072 -1.38578146904690  2.62369892599260
 6 -3.59142657005701 -0.09713234093409  2.06327091229123
 6 -3.68834187358736 -1.83480692209221  3.86660936033603
 6 -1.97542273547355 -2.74143155245525  0.67007231273127
 6 -0.99899154265427 -3.66177375797580  1.28718230623062
 6  0.29991509200920 -3.85109895059506  0.53021121582158
 8  0.52517258155816 -3.33180049364937 -0.52149838403840
 8  1.05457230293029 -4.72237185448545  1.25243985128513
 7 -4.86680749704971  2.57226660356036  1.54548478017802
 6 -3.93963605340534  2.37653507520752  2.46404700800080
 6 -3.70595009870987  3.56672517471747  3.13961451765176
 6 -4.52675322802280  4.50012154045405  2.61683095439544
 6 -5.22327843204320  3.85346344154415  1.55621171347135
 6 -2.87161252435244  3.76195357115712  4.38416260566057
 6 -4.67553408400840  5.96024344484448  3.00208971377138
 8 -4.08382843084308  6.61148903690369  3.84250815071507
 7 -6.94475827572757  2.60117001280128 -0.62717437373737
 6 -7.02078479327933  3.88194781198120 -0.36442813151315
 6 -7.87270245664566  4.67144386918692 -1.15581969146915
 6 -8.34173362666267  3.71083801370137 -2.15086403080308
 6 -7.75087397789779  2.41466747554755 -1.70374632113211
 6 -8.18717170807081  6.08866877627763 -1.18005751455146
 6 -9.27952231553155  3.88330872907291 -3.24838947174717
 6 -8.70685213891389  3.95836398259826 -4.68816522052205
 7 -6.37852627162716 -0.11960697839784 -1.00935602760276
 6 -7.31843137273727 -0.01851792039204 -2.05586979767977
 6 -7.50719822702270 -1.29300100370037 -2.73945646824682
 6 -6.73818336713671 -2.18177774957496 -2.06047221292129
 6 -6.02530094549455 -1.35884945004500 -1.06967309770977
 6 -8.48319377717772 -1.56457658365837 -3.91107800400040
 6 -6.20999466656666 -3.56269185308531 -1.99297285238524
 8 -6.50796519201920 -4.49413711211121 -2.59694595969597
 6 -5.06701526362636 -3.53207125972597 -0.91620394019402
 6 -5.29397687508751 -4.62450789188919  0.07206087788779
 8 -5.70915668726873 -4.40036904500450  1.18885524892489
 8 -5.07945764396440 -5.86671786818682 -0.44300744534453
 6 -5.51701926612661 -6.94878673197320  0.51486331613161
 6  2.35543651685169 -4.99495061526153  0.55685964036404
 6  3.45912044704470 -3.99681984288429  0.96787468726873
 6  4.07530692089209 -3.21114398449845  0.22476611161116
 6  3.72329666856686 -2.96085102640264 -1.17578708320832
 6  5.22574900070007 -2.28642368996900  0.76262006080608
 6  6.55770064136414 -2.76507943314331  0.20925239263926
 6  7.67763308690869 -1.80982033753375  0.79615530603060
 6  8.97079790109011 -2.06417125072507 -0.02196997949795
 6  9.57772415411541 -3.43829446984698  0.29917645994599
 6  9.96531711081108 -0.90336057345735  0.48210072557256
 6  11.08004530693069 -0.71471107800780 -0.33398216441644
 6  12.11968965756576  0.45295992349235  0.21946879447945
 6  13.46703915971597  0.51641651155116 -0.51496625982598
 6  14.43573187218722 -0.67922732533253 -0.17140129102910
 6  14.18408434803480  1.81188736033603 -0.29697895269527
 6  15.40897508790879  2.14127215541554 -1.11371636663666
 6  16.02254483888389  3.49316406920692 -0.74102471567157
 6  17.28622387148715  3.89192703430343 -1.43304723992399
 6  17.19937252695269  3.94193908560856 -3.02013423762376
 6  17.92352175827583  5.15579084438444 -0.93513297219722
 1 -2.52948867166717  1.13192746814681  3.60696116451645
 1 -6.38857683648365  5.54773015341534  0.76592558425843
 1 -8.71834224142414  1.23762406530653 -3.15627110591059
 1 -3.76571763656366 -3.24777009240924  1.86027408820882
 1 -1.86812393629363 -1.23976163776378  2.85247652375238
 1 -3.23826360546055 -2.72414557575758  4.36640018401840
 1 -3.59657044974497 -1.21135103950395  4.69448147794779
 1 -4.72416492819282 -1.84542362326233  3.63876782728273
 1 -2.14448976267627 -3.17589710701070 -0.38090871467147
 1 -1.28107593999400 -1.86444556085609  0.21742986458646
 1 -0.65469090259026 -3.27895919151915  2.29218343704370
 1 -1.65521024262426 -4.67725485668567  1.33325512351235
 1 -1.90375048884888  3.39970949534953  4.05321123082308
 1 -2.66310730083008  4.83625083108311  4.59859611731173
 1 -3.12094508950895  3.05770676817682  5.27141214721472
 1 -5.42707577147715  6.44340853525352  2.34896021742174
 1 -10.03449258275828  3.13185384248425 -3.19582283398340
 1 -9.91875267316732  4.86033987808781 -3.32720301100110
 1 -9.54386418621862  4.13271168516852 -5.40517571987199
 1 -7.91851136053605  4.81238098349835 -4.72577253225323
 1 -8.21326117511751  3.13238259705971 -4.91487141194119
 1 -8.12273986358636 -1.10350089298930 -4.76363736203620
 1 -8.69165014801480 -2.61639504460446 -4.08541117811781
 1 -9.48045812531253 -1.17211403480348 -3.61388829552955
 1 -4.20228758615862 -3.84550937753775 -1.48565185208521
 1  2.62463359635964 -5.96609455245525  0.82037799469947
 1  2.20583132653265 -4.98133510961096 -0.37417086668667
 1  3.75502762506251 -4.16844612641264  1.91291629922992
 1  2.72734772147215 -2.85797141824182 -1.32967550855086
 1  4.00914552785279 -2.00588414771477 -1.62431490199020
 1  4.29446162016202 -3.73411714091409 -1.86005493139314
 1  5.21696173707371 -1.24933135713571  0.38441032453245
 1  5.37648617591759 -2.27858949134913  1.83863874417442
 1  6.71340886758676 -3.81566475857586  0.59089697369737
 1  6.89574973537354 -2.77512512151215 -0.90651124662466
 1  7.24768369966997 -0.87372069716972  0.79706695219522
 1  7.88665076797680 -2.07378396149615  1.85999038433843
 1  8.75314942424242 -1.71315959115912 -0.92739607770777
 1  8.83542806150615 -4.24505327672767 -0.09461325372537
 1  10.62168150895090 -3.49757395949595 -0.02591270477048
 1  9.82442150355035 -3.53339443094309  1.38767921062106
 1  9.43486263686369  0.05745147134714  0.58082344614461
 1  10.38208830633063 -1.45682221612161  1.51223076307631
 1  11.79892503380338 -1.68844887678768 -0.49900427362736
 1  10.91620770747075 -0.58619152405241 -1.43381471507151
 1  11.69458049154916  1.35332976217622  0.11837228202820
 1  12.19461428472847  0.16357754915492  1.31535981618162
 1  13.14881168186819  0.30815524782478 -1.67700993969397
 1  14.57906724502450 -0.70855906860686  0.82532821282128
 1  13.83963953495349 -1.48388740504050 -0.52047836933693
 1  15.40416140454045 -0.47353055125513 -0.92530942344234
 1  13.48341653585359  2.63342796189619 -0.51575336303630
 1  14.48706540684069  1.73553384258426  0.89634684858486
 1  16.08730038583858  1.24470308300830 -0.97233372407241
 1  15.12587817121712  2.08497241004100 -2.18871025072507
 1  15.12042344694470  4.33435881388139 -0.74039603770377
 1  16.23821659175918  3.54952159355936  0.35292519291929
 1  17.94282796419642  3.09484097529753 -1.27056613621362
 1  16.52473319371937  4.65995252415242 -3.36553891369137
 1  18.14566048954896  3.95063457675768 -3.47335194029403
 1  16.87914811501150  2.86672774277428 -3.35839387398740
 1  18.09045509270927  5.12937415491549  0.33647531173117
 1  18.75624314661466  5.53724787698770 -1.60954786918692
 1  17.21324287518752  5.92927243034303 -1.20271433273327
 1 -4.97853315471547 -7.89168860196020  0.01812827512751
 1 -6.69956438673867 -7.21469855645565  0.22044555205521
 1 -5.30980914951495 -6.87472904850485  1.76840129672967
 8 -7.59923751535154  6.84441094189419 -0.42061984598460
 1 -9.14809310641064  6.24169981488149 -1.84104978777878

