%nproc=4
%Mem=4GB
# td=(NStates=1) iop(3/107=0140000000,3/108=0140000000) iop(3/107=0140000000,3/108=0140000000) CAM-B3LYP/6-31G(d,p) 

TD

0 1
12 -5.64995650225022  1.24684955925593  0.25323392859286
 6 -5.10502088928893 -2.12883134643464 -0.37149401620162
 6 -3.46945573467347  1.16451673647365  2.79645501880188
 6 -6.20067886358636  4.56189945414541  0.69905011381138
 6 -7.92293806090609  1.20419126982698 -2.44306197969797
 7 -4.39224347764777 -0.29231742354235  1.03134447324732
 6 -4.34217774527453 -1.60249395099510  0.64444679427943
 6 -3.24679780428043 -2.29686298909891  1.40413477717772
 6 -2.88285145614561 -1.33099599049905  2.64004056015602
 6 -3.61595902330233 -0.06175880358036  2.13692827802780
 6 -3.53970701010101 -1.78798223962396  3.96987968736874
 6 -2.00162535573557 -2.79795720502050  0.65562086758676
 6 -0.99229087258726 -3.57388496909691  1.49298288628863
 6  0.26169126962696 -3.82375621632163  0.67872606730673
 8  0.50274033833383 -3.41050836443644 -0.43358959315932
 8  1.12711955765577 -4.76575619291929  1.36459106640664
 7 -5.06394721102110  2.49169854675468  1.55686591829183
 6 -4.01762385218522  2.38690611231123  2.45080568386839
 6 -3.74855435913591  3.62267076927693  3.06073662986299
 6 -4.56384693739374  4.64094562286229  2.62569184048405
 6 -5.37934403860386  3.86606470167017  1.57500359265927
 6 -2.71660702380238  3.71338871467147  4.31188537793779
 6 -4.76002253285329  5.98750617111711  3.04934443924392
 8 -4.07604765276528  6.57747563556356  3.93502740264026
 7 -6.94175797569757  2.61985188098810 -0.69057071337134
 6 -6.86717943274327  3.95310492769277 -0.41818350705071
 6 -7.94494968136814  4.67572429722972 -1.23965807530753
 6 -8.37520697399740  3.72049897979798 -2.11288023242324
 6 -7.80927981848185  2.37043305210521 -1.71353730023002
 6 -8.13253624452445  6.10894080348035 -1.19169867866787
 6 -9.47640200350035  3.83505390359036 -3.22882751555156
 6 -8.81908336203620  4.07185533173317 -4.55425182918292
 7 -6.40559897889789 -0.21756677437744 -1.07197228922892
 6 -7.35521505110511 -0.03534960356036 -2.11100531123112
 6 -7.52709021622162 -1.26635833943394 -2.80425294789479
 6 -6.70806035483548 -2.19205877767777 -2.16673283898390
 6 -6.05489390479048 -1.49994355945595 -1.11727785818582
 6 -8.45100055785579 -1.72299242524252 -3.90290718691869
 6 -6.23191685878588 -3.60863644754475 -2.05929948504851
 8 -6.63008740424042 -4.54014171257126 -2.56077234233423
 6 -4.95072363446345 -3.52743079567957 -0.94386670647065
 6 -5.20050752815281 -4.57658309940994  0.13544721652165
 8 -5.71393716531653 -4.35754476257626  1.24210057345735
 8 -4.99445914411441 -5.76500769716972 -0.30886403100310
 6 -5.41043860806081 -6.88377023032303  0.43077490729073
 6  2.28864983818382 -5.10909202940294  0.60347430183018
 6  3.43154768976898 -4.17548770967097  0.95892379217922
 6  4.02063145334533 -3.33548641874187  0.12372600760076
 6  3.73551789068907 -3.00016495779578 -1.28335784028403
 6  5.12297872367237 -2.37085213281328  0.70315411421142
 6  6.49216408770877 -2.67450037523752  0.10442190959096
 6  7.71060638423842 -1.78040739623962  0.67151284178418
 6  8.97225804710471 -1.93980881448145 -0.15233301580158
 6  9.47522390409041 -3.34170481088109  0.06504304660466
 6  10.00951153025303 -0.83591382878288  0.38074058955896
 6  11.36153345574557 -0.87989759665967 -0.32143090929093
 6  12.31646933553355  0.14564919241924  0.18664551215121
 6  13.64379683548355  0.46403127302730 -0.49453421662166
 6  14.58834713371337 -0.73966336893689 -0.33219737063706
 6  14.26296223582358  1.76993316491649 -0.08102735753575
 6  15.47492168256826  2.04054208240824 -0.95747074207421
 6  16.07068965336533  3.51694644744474 -0.69763037623762
 6  17.36403165226523  3.93468130973097 -1.42661659685969
 6  17.14355694539454  4.03743863556356 -2.92267449164916
 6  18.01077048314831  5.25910117541754 -0.87799725862586
 1 -2.60021574437444  0.89777405280528  3.55384585298530
 1 -6.04218219701970  5.72816819721972  0.70576956865687
 1 -8.60029043624363  1.06763706660666 -3.38221370017002
 1 -3.87048811361136 -3.10079539493949  1.85012307310731
 1 -1.89191631553155 -1.10455811741174  2.74858613471347
 1 -2.85847562666267 -2.76384954615462  4.11132467646765
 1 -3.41759255195520 -1.30147005140514  4.72803483328333
 1 -4.70636314801480 -2.07859694059406  4.03237718821882
 1 -2.49048436213621 -3.45394491179118 -0.07714833863386
 1 -1.50981881428143 -1.88711782808281  0.42936105770577
 1 -0.67531296479648 -3.08176947254726  2.39077329602960
 1 -1.43771849344934 -4.56085321652165  1.85976777477748
 1 -1.71421153495349  3.61699122352235  4.08837474717472
 1 -2.84337532763276  4.68199540554055  4.78748500620062
 1 -2.87884087908791  3.04053505100510  5.26059106510651
 1 -5.57131019491949  6.41082527692769  2.32509783118312
 1 -10.26734586808681  3.13996465356536 -3.07913116481648
 1 -10.10080087798780  4.76233007710771 -3.07918820952095
 1 -9.58234803460346  4.15298371237124 -5.25012021432143
 1 -8.33333284268427  5.07649739513951 -4.61088104310431
 1 -8.10951080008001  3.18387774657466 -4.68547847264726
 1 -8.63937152675268 -1.17478802170217 -4.66408740704070
 1 -8.11136211921192 -2.93735714081408 -4.28161079807981
 1 -9.55020510001000 -1.66651347474747 -3.46426333303330
 1 -4.13196055345534 -3.98948377497750 -1.48321160806081
 1  2.52083321632163 -6.03759170217022  0.95798175507551
 1  2.14951569496950 -5.25323229932993 -0.51728517811781
 1  3.76952907520752 -4.23714299609961  2.03264827242724
 1  2.74813980068007 -3.61369699079908 -1.53120566156616
 1  3.56144075737574 -1.99093265256526 -1.47779024952495
 1  4.72069424342434 -3.18823255245525 -2.06551547744774
 1  4.86710675157516 -1.28883530753075  0.46229811331133
 1  5.03199172647265 -2.51908354075408  1.95271015131513
 1  6.77199472617262 -3.70840403250325  0.53395127912791
 1  6.46711687208721 -2.31250885988599 -1.05228582408241
 1  7.33029196049605 -0.82196552165217  0.42748999449945
 1  7.73020512341234 -1.82698928202820  1.73977836313631
 1  8.62727683698370 -1.68942721792179 -1.23554689278928
 1  8.85531004970497 -4.21282005340534 -0.05570936333633
 1  10.57516685748575 -3.33690789288929 -0.54491460496050
 1  9.86266532793279 -3.39731082258226  1.23927437013701
 1  9.45880503110311  0.19585531173117  0.12260762456246
 1  10.24474457195720 -0.98799533343334  1.60911045104510
 1  11.61494663596360 -1.82740277217722 -0.00237461066107
 1  11.31592767946795 -0.89285219011901 -1.35818715231523
 1  11.73959499299930  1.06207063626363  0.20855129992999
 1  12.54754957825782 -0.10714952355236  1.24140242044204
 1  13.36842364306431  0.67640207250725 -1.49304154285428
 1  15.01954129242924 -0.82405061776178  0.59059473947395
 1  14.07278284928493 -1.74241325762576 -0.50218654015402
 1  15.32747373577358 -0.72484568276828 -1.14798169066907
 1  13.50116831103110  2.55660027912791 -0.26109789748975
 1  14.65591229152915  1.78572886208621  0.89397661156116
 1  16.34063571937194  1.38064667736774 -0.57612410311031
 1  15.36544212761276  2.02113602640264 -2.06123750345034
 1  15.27621902650265  4.19628500650065 -0.88741073917392
 1  16.09046181628163  3.69964660606061  0.39125902630263
 1  18.07683136453645  3.15868735993599 -1.35374445404540
 1  16.21524224462446  4.53461999089909 -3.23505586538654
 1  18.15248117161716  4.46929644294429 -3.28167277237724
 1  16.85460566076608  3.00604167416742 -3.39746778137814
 1  18.28865491269127  5.12935415291529  0.12510417461746
 1  18.93957147944795  5.39774392659266 -1.41903881828183
 1  17.42721427232723  6.15656515961596 -0.92887694899490
 1 -4.94836013741374 -7.82908234133413  0.15661212351235
 1 -6.43074750505051 -6.94716180278028  0.72751625912591
 1 -4.87805597419742 -6.62234380998100  1.28967342394239
 8 -7.72318991059106  6.90819732053205 -0.48588637263726
 1 -8.84637293439344  6.25422106700670 -1.91760744354436

