%nproc=4
%Mem=2GB
# td=(NStates=1) iop(3/107=0140000000,3/108=0140000000) iop(3/107=0140000000,3/108=0140000000) CAM-B3LYP/6-31G(d,p) 

TD

0 1
12 -7.00062263436344  0.49524866896690  0.30319793929393
 6 -4.61572867936794 -1.92746116791679  0.46553683068307
 6 -4.43040485588559  2.86206783988399  0.83231611321132
 6 -9.27260996569657  2.97831185528553 -0.15180468216822
 6 -9.23698179577958 -1.85698872847285 -0.65142520122012
 7 -4.79419449134913  0.55312471017102  0.47552658475848
 6 -3.98632589818982 -0.61827153395340  0.48209876527653
 6 -2.47016043464346 -0.27445920512051  0.87020908320832
 6 -2.67530749654966  1.24022417121712  1.09697185968597
 6 -4.01609787268727  1.65040512571257  0.83269804450445
 6 -2.04879116481648  1.70036183208321  2.50196475927593
 6 -1.74241298969897 -0.74231679507951 -0.48797747144714
 6 -0.14344246254625 -0.90740244684468  0.06725579907991
 6  0.88056913611361 -0.88170540744074 -1.18309648344835
 8  0.80466053415342 -0.56308892139214 -2.36328731893189
 8  1.84030431703170 -1.60391068966897 -0.66401132363236
 7 -6.77506924912491  2.74211458145815  0.29739348724872
 6 -5.80533109400940  3.37035567876788  0.61722801900190
 6 -6.17277149234924  4.85766545134513  0.62448731733173
 6 -7.49468018141814  4.83671976247625  0.26205278857886
 6 -7.98710041394139  3.45824463286329  0.19936476787679
 6 -5.23977889818982  5.95431286178618  0.74858252625263
 6 -8.40620218151815  6.00864778487849  0.24510403410341
 8 -8.03364728092809  7.12273388998900  0.58609646644664
 7 -8.87063061656166  0.62780363956396 -0.39812246134613
 6 -9.61839551195120  1.65094983028303 -0.40738179047905
 6 -11.05578220852085  1.24405427652765 -0.66433221442144
 6 -11.03372773027303 -0.18364746034603 -0.79762061756176
 6 -9.62012367566757 -0.56934509770977 -0.53546562326233
 6 -12.05154192949295  2.16573276637664 -0.77854250505050
 6 -12.24044716521652 -0.99546310861086 -1.05826396009601
 6 -12.20869773187319 -1.47586975217522 -2.64978777347735
 7 -6.90734721762176 -1.47838039933993 -0.02591523602360
 6 -7.94547720932093 -2.33075307200720 -0.38916211421142
 6 -7.43671125622562 -3.63476079847985 -0.20202121222122
 6 -6.02782840404040 -3.72135129602960 -0.05077333793379
 6 -5.89451574027403 -2.25361417591759  0.23511969626963
 6 -8.16530505400540 -4.94832221002100 -0.35282809870987
 6 -4.92742894739474 -4.34525032313231  0.40180820652065
 8 -4.90752250095009 -5.53621415971597  0.39517002360236
 6 -3.93224695009501 -3.24653521272127  0.64224887208721
 6 -3.15167867876788 -3.59598577407741  2.01844155715572
 8 -3.72977821792179 -3.72141887668767  3.04870354015402
 8 -1.74936661156116 -3.41295760106011  1.93461340054005
 6 -0.88800732283228 -3.73138822892289  3.22707713291329
 6  2.96778867166717 -1.84747992489249 -1.62896414051405
 6  4.17160092749275 -1.06545354645465 -1.34167970027003
 6  5.10956171157116 -0.50144701610161 -2.08950515211521
 6  5.37846182998300 -0.77687082178218 -3.68464544674467
 6  6.38881270587059  0.27416976407641 -1.56181273977398
 6  7.66498519251925 -0.69644542664266 -1.16697343464346
 6  8.64609717001700  0.35345097969797 -0.53876235673567
 6  9.89824291369137 -0.39823674397440 -0.15331363706371
 6  9.55218273457346 -1.27724653935394  1.00582495129513
 6  11.12405473547355  0.57920277447745  0.04316915531553
 6  12.34876014651465 -0.40298899169917  0.06448475967597
 6  13.56151769436944  0.62195947064706  0.29233213161316
 6  14.89175551075108 -0.02561928382838  0.48173283538354
 6  15.07404239233923 -0.60158243874387  1.85392531653165
 6  15.99057868626863  1.08680358235824  0.37333053835384
 6  17.37646712481248  0.37458268266827  0.24929805590559
 6  18.62696224362436  1.39616680788079  0.23565341854185
 6  19.95219742084208  0.73602209700970 -0.04541462516252
 6  20.10711051235124  0.22643807410741 -1.58614440564056
 6  21.05060222912291  1.76063748174817  0.47017192129213
 1 -3.75596623492349  3.35234648564857  1.35352475417542
 1 -10.12326630913091  3.70940002510251 -0.10690432433243
 1 -10.02639513111311 -2.83963436273627 -0.92884571047105
 1 -2.17655017181718 -0.81630924872487  1.76693674197420
 1 -1.80675001360136  1.87990846704671  0.25860231363136
 1 -0.89473085678568  1.61251956635664  2.65008571967197
 1 -2.67715588948895  2.77816639303930  2.64396051385139
 1 -2.44939727222722  0.91732961826183  3.09502537163716
 1 -1.79926894719472 -1.64995626862686 -1.05925371217122
 1 -1.81040620962096  0.23219174627463 -1.37409720052005
 1  0.15635363366337 -0.18736016931693  0.79662552775278
 1 -0.19869358915892 -1.90850718451845  0.58601883398340
 1 -4.45064959535954  5.92375020292029 -0.46379142144214
 1 -5.68507878847885  7.14129680558056  0.86977388348835
 1 -4.46391741994199  6.08036699769977  1.56561433373337
 1 -9.48052106620662  6.09031414061406 -0.18796517231723
 1 -12.47184673827383 -1.73074394189419 -0.56635106230623
 1 -13.38545476047605 -0.18790239043904 -0.95963359975998
 1 -13.26150397349735 -1.90971308670867 -2.96061317841784
 1 -11.65479244304431 -0.71803438193819 -3.38851102060206
 1 -11.37931475587559 -2.31602491949195 -2.76810341774177
 1 -8.95983516681668 -4.86351290689069 -1.35318754675468
 1 -7.71782699729973 -5.98290830343034 -0.48689834173417
 1 -9.14512179217922 -4.94615657685769  0.04675928542854
 1 -3.37199678107811 -3.53506723162316 -0.23577188398840
 1  3.23234484988499 -2.89916719051905 -1.65436115321532
 1  2.47423171197120 -1.55805172017202 -2.87467770307031
 1  4.25453278097810 -0.70258300670067 -0.17730412881288
 1  4.28780183718372 -0.39425289778978 -4.17394750975098
 1  6.14677825622562 -0.37441611701170 -3.83524474837484
 1  5.46307013441344 -1.79017163146315 -4.06972115591559
 1  6.46518694059406  1.42591792919292 -2.16122874007401
 1  5.60664577397740  0.96768231603160 -0.30162442584258
 1  7.55174635353535 -1.66169436653665 -0.59148742714271
 1  7.92742814121412 -1.08996778707871 -2.24950442634263
 1  8.52884501590159  1.22532312711271 -1.21427421272127
 1  8.16687518561856  0.81170635883588  0.66373208160816
 1  10.30340278737874 -1.02494993869387 -1.07839499709971
 1  8.49346159045905 -1.67145596129613  0.62407076787679
 1  10.37695376477648 -2.04633851505150  1.25004689608961
 1  9.36242945454546 -0.87498872127213  1.90134143924392
 1  11.36639027682768  1.19584234413441 -1.06534370597060
 1  11.07221696829683  1.35122399799980  0.78786266656666
 1  12.55841338353835 -1.10606304580458  0.61718540184018
 1  12.44223637763776 -0.64665288588859 -0.94593759125913
 1  13.55177004700470  1.63415296029603 -0.37514641924192
 1  13.22228427322732  1.09901415271527  1.40697648704870
 1  15.11148257405740 -0.43650116611661 -0.46122431363136
 1  15.10117001690169 -0.01011061556156  2.60283305630563
 1  14.10617789128913 -1.21113878577858  2.04962246034604
 1  15.92227926102610 -1.23018660176018  1.66898337603760
 1  15.39131026592659  1.77406740014001 -0.79664963966397
 1  16.18750278287829  1.85007454295429  0.96099442264226
 1  17.39604091919192 -0.28241507090709  1.04926511321132
 1  17.62388991319132 -0.35713754455446 -0.58544992239224
 1  18.23863887098710  1.99613616141614 -0.54020700900090
 1  18.27286728282828  2.23797770467047  1.10286695719572
 1  20.56101866306631 -0.10106726052605  0.73903725452545
 1  20.17100541854185  1.24301935153515 -2.09759188438844
 1  20.86970126012601 -0.28002980478048 -1.64561869526953
 1  19.04354708170817 -0.23705142354235 -2.12927100180018
 1  21.25825260386038  1.40936051515152  1.59060981458146
 1  22.17816555685569  1.56274285698570  0.27945523052305
 1  20.68272492539254  2.89061654885489  0.21667687138714
 1  0.11552592749275 -4.33270602000200  2.75587393539354
 1 -1.48284796579658 -4.51637891159116  3.92480311691169
 1 -1.10467448074808 -2.43723220032003  3.79626377957796
 8 -11.89513788808881  3.35797059625963 -0.97777959165917
 1 -12.81205171667167  1.52957419751975 -1.09110971597160

