%nproc=4
%Mem=2GB
# td=(NStates=1) iop(3/107=0140000000,3/108=0140000000) iop(3/107=0140000000,3/108=0140000000) CAM-B3LYP/6-31G(d,p) 

TD

0 1
12 -6.69661223332333  0.59641878597860  0.17176479597960
 6 -4.42488959545955 -1.84013243504350  0.41935221222122
 6 -4.33809562496250  2.86456808990899  0.91664454605461
 6 -9.08282098679868  3.27515153925393 -0.19292879457946
 6 -9.25264336193619 -1.69092212181218 -0.29514957365737
 7 -4.68520359225923  0.43342273997400  0.55910494259426
 6 -3.93576084168417 -0.72105181198120  0.58667922332233
 6 -2.44389780838084 -0.49119087828783  0.99337139943994
 6 -2.52670263606361  1.04783493229323  1.19285144764476
 6 -3.96577284018402  1.53421350655066  0.82903767846785
 6 -2.22633891959196  1.51653344924492  2.58289285208521
 6 -1.54989373777378 -0.82860542394239 -0.22981165486549
 6 -0.17976609490949 -1.29621132773277  0.11540061356136
 6  0.82265334453445 -1.37577481438144 -0.89500767456746
 8  0.50989105720572 -1.15874848734874 -2.12823381358136
 8  1.87363765036504 -1.99775007360736 -0.54513943644364
 7 -6.76657840004000  2.66790716071607  0.34446819471947
 6 -5.68829939083908  3.34914355755576  0.68711500770077
 6 -6.01070528572857  4.88477816261626  0.63938880748075
 6 -7.33653436683668  4.99309540004000  0.37527411071107
 6 -7.77551925582558  3.58699750815081  0.05438026942694
 6 -5.01052597289729  6.04478190869087  0.86583425142514
 6 -8.00945250655066  6.27407432753275  0.30981050475048
 8 -7.61730564676468  7.40153176977698  0.49642749954995
 7 -8.95056861036104  0.77793865306531 -0.11165381448145
 6 -9.57071074347435  1.80372510781078 -0.33571462376238
 6 -11.11521815211521  1.44648451955195 -0.60913669486949
 6 -11.05995035253525  0.01618252265227 -0.71712256775678
 6 -9.87828949224923 -0.32763092629263 -0.45846792349235
 6 -12.08884565986599  2.51729792289229 -0.93674832563256
 6 -12.16568968946895 -0.92764632693269 -1.04236236993699
 6 -12.36688355045505 -0.79433159835984 -2.41702449714971
 7 -6.94319080198020 -1.34478704000400  0.06608396389639
 6 -8.00745340694069 -2.21369136583658 -0.21463466146615
 6 -7.71335892099210 -3.58808613101310 -0.21547255735574
 6 -6.22085770697070 -3.54591375227523 -0.23684194479448
 6 -5.90170645934593 -2.13460227472747  0.02874905920592
 6 -8.50644916841684 -4.63006038383838 -0.60106292219222
 6 -4.87895409990999 -4.30908670677068 -0.02508448274828
 8 -4.71259300800080 -5.53120365866587 -0.10455994939494
 6 -3.82306603200320 -3.42080263946395  0.32799744694469
 6 -3.11636514741474 -3.74327050255025  1.56459617261726
 8 -3.62824806490649 -4.20374710951095  2.74328299809981
 8 -1.56734840974097 -3.40110641594159  1.41297123632363
 6 -0.68752727482748 -3.80545563566357  2.60867529272927
 6  2.97950984378438 -2.34886006290629 -1.35111635573557
 6  4.06676044344434 -1.40993799489949 -1.17810334263426
 6  5.15393614901490 -1.21430830223022 -1.95414161576158
 6  5.50269425322532 -2.27485061976198 -3.31285826802680
 6  6.25407923252325 -0.24560221312131 -1.73474003250325
 6  7.50656935093509 -1.06168195029503 -0.86650338763876
 6  8.63439599989999  0.10174580918092 -0.85777425792579
 6  9.69253234263426 -0.38821574187419 -0.04478278397840
 6  9.60026754305430 -0.56008482318232  1.74527889668967
 6  10.87708003800380  0.78557341154115 -0.54599976157616
 6  12.22068733923392  0.17391869906991  0.02899121032103
 6  13.37704924752475  1.08264553925393  0.04952785118512
 6  14.85930226542654  0.43926720482048  0.56625128722872
 6  14.71290627872787  0.14404212371237  2.00760068406841
 6  15.84115374377438  1.50691559355936  0.18246145144514
 6  17.38217769586959  0.66105132953295  0.26076920302030
 6  18.48740828822882  1.68485567676768 -0.20010015681568
 6  19.90944314541454  0.97502599739974  0.01471138743874
 6  19.99327912921292 -0.21441601130113 -1.06913270447045
 6  21.10745791469147  2.01591300930093  0.03445834993499
 1 -3.46579721802180  3.57631888288829  1.28207760946095
 1 -9.86923090559056  3.96390547564756 -0.30751438533853
 1 -10.24062655425542 -2.59916031533153 -0.53081590749075
 1 -2.31701421822182 -0.99128674647465  1.69432948124813
 1 -1.85872521112111  1.47100757695770  0.68796524992499
 1 -1.01360274397440  1.34306262066207  3.23565427652765
 1 -2.49332750665067  2.75335391179118  2.78874499229923
 1 -3.04039637213721  0.90894878017802  3.15321119021902
 1 -2.11668068836884 -1.82540381338134 -0.49022680948095
 1 -1.81774694369437  0.00934946204620 -1.04827461826183
 1 -0.04069607130713 -0.82623405670567  1.00973683888389
 1 -0.51280500030003 -2.44487082088209  0.31228146024602
 1 -4.09301383178318  6.02635046294629  0.26310126782678
 1 -5.12076235683568  7.10183285918592  0.62715962206221
 1 -4.68586961516152  5.82864182518252  1.94958273057306
 1 -9.12737575167517  6.08374348354835  0.27874149834984
 1 -11.91036058965897 -2.27554842234224 -0.65616004320432
 1 -13.24734094909491 -0.63358695889589 -0.53363099949995
 1 -13.38130595369537 -1.69130124552455 -2.63412052915292
 1 -12.76796376017602  0.12136955845585 -3.09206137563756
 1 -11.24429125352535 -1.08092140914091 -2.98476508390839
 1 -9.58969815311531 -4.49399595519552 -1.57354958295830
 1 -7.96726194079408 -5.53672368496850 -0.46772642454245
 1 -9.12070935093509 -4.64070603180318  0.59374398389839
 1 -3.15222480388039 -3.33825755065507 -0.61065937273727
 1  3.14251586698670 -3.51337861166117 -1.12411812891289
 1  2.99465375417542 -2.25241115611561 -2.45691592689269
 1  3.95015234293429 -0.90018276667667 -0.41104750315032
 1  4.57344040104010 -2.33781725422542 -4.15401551655165
 1  6.46671024942494 -1.89829850525053 -3.81036226012601
 1  6.01516534393439 -3.28328094239424 -2.61430561436144
 1  6.54466488838884  0.03383872127213 -2.72944556175617
 1  5.88936404580458  0.68028357615762 -1.22009627302730
 1  7.08717989688969 -1.17690588768877  0.30606232783278
 1  7.85614101250125 -2.16845563586359 -1.39354883078308
 1  8.90646277767777  0.28425902070207 -2.11126391169117
 1  8.03173167126713  1.05262045024502 -0.38371266286629
 1  9.81215366246625 -1.77839528322832 -0.20533769136914
 1  8.86075832013201 -1.44047286298630  2.14169253005300
 1  10.49718578797880 -1.12115599679968  2.18506039743974
 1  9.12009522112211  0.34246302390239  2.35573687878788
 1  10.94294793259326  1.05844860476048 -1.57438461006101
 1  10.35428517511751  1.46170504610461  0.55397927822782
 1  12.11839938213821 -0.34868730823082  0.99124280758076
 1  12.33677583158316 -0.91685990659066 -0.84258725622562
 1  13.42965783578358  1.45972551755176 -0.77323622822282
 1  13.36281832663266  1.85224947624763  0.76036182558256
 1  15.15111653745375 -0.75073258925893 -0.12637082828283
 1  14.63250315021502  0.90761115661566  2.64125689868987
 1  13.72925019851985 -0.49986765866587  2.37828532663266
 1  15.65783281638164 -0.37588117121712  2.13049952765277
 1  15.67065820072007  1.61373136653665 -0.93589356405641
 1  15.94408844144414  2.39594913041304  0.76904522772277
 1  17.16757807290729  0.42416558715872  1.46470665736574
 1  17.11133865806580 -0.16645847664766 -0.60524190159016
 1  18.42963797089709  1.98229477727773 -1.24841783008301
 1  18.81831182728273  2.46220012691269  0.62740941144114
 1  19.89624218541854  0.55144799099910  1.00934428522852
 1  19.95112343034303  0.11057610721072 -2.15884801000100
 1  20.96135042504250 -0.64642644444445 -0.73314744814481
 1  19.22944567156716 -0.99285700410041 -1.04261233593359
 1  20.84196097469747  3.00596017511751  0.67561831543154
 1  21.91633937423742  1.49291587428743  0.42244952995300
 1  21.20542719561956  2.29679716691669 -1.11006580288029
 1  0.78638301320132 -3.78309105850585  2.44817316531653
 1 -1.28090777177718 -4.79998727242724  3.14025466206621
 1 -1.00824483778378 -2.52070054715472  3.37951210441044
 8 -11.95804417871787  3.54180898009801 -0.50859267296730
 1 -12.98964947644765  1.96655789588959 -1.04601520652065

