%nproc=4
%Mem=2GB
# td=(NStates=1) iop(3/107=0140000000,3/108=0140000000) iop(3/107=0140000000,3/108=0140000000) CAM-B3LYP/6-31G(d,p) 

TD

0 1
12 -6.66167873997400  0.52024116821682  0.07103472297230
 6 -4.61598870537054 -2.04436285808581  0.48154843184318
 6 -4.33020483588359  2.77914954805481  0.89380226182618
 6 -8.94449715441544  3.15060908500850 -0.19301880358036
 6 -9.47540563816382 -1.73307633723372 -0.57907796649665
 7 -4.58977404930493  0.39664906260626  0.57202623472347
 6 -3.92281954755476 -0.94539424622462  0.65058561396140
 6 -2.65163858245825 -0.61226298549855  0.98596065836584
 6 -2.37251721752175  0.86376652545255  1.13640580308031
 6 -3.75525178807881  1.37042712791279  0.88222299699970
 6 -1.89301558725873  1.36131792769277  2.59388395119512
 6 -1.67598634703470 -1.14853741714171 -0.06280495419542
 6 -0.04721283958396 -1.08032973957396  0.24970404390439
 6  0.82147322652265 -1.22281951885188 -1.06508468226823
 8  0.59358942704270 -0.62805541804180 -2.11763275347535
 8  1.99452973957396 -1.93063336193619 -0.74507943044304
 7 -6.63493523572357  2.61571194119412  0.20678442634263
 6 -5.60054061496150  3.35156379957996  0.69783607980798
 6 -5.80688490369037  4.71581126592659  0.69711458005801
 6 -7.11182189558956  4.87543363386339  0.38400498379838
 6 -7.83459516341634  3.50667947634763  0.13383821522152
 6 -4.82972789308931  5.92499993049305  1.01193886188619
 6 -8.01581314261426  6.13003992409241  0.19323884758476
 8 -7.49772368856886  7.34025564216422  0.34835269206921
 7 -8.71599515301530  0.59186004520452 -0.39574222332233
 6 -9.33410708310831  1.88414314961496 -0.42776382868287
 6 -10.93423005330533  1.58330820192019 -0.67120290149015
 6 -11.03581793929393  0.24842574697470 -0.80027088258826
 6 -9.62935459875987 -0.36466462966297 -0.66819889658966
 6 -11.93532030733073  2.64254044714471 -0.92066671747175
 6 -12.20551367186719 -0.54325788808881 -1.14862299599960
 6 -12.24979184128413 -0.98189035423542 -2.62391518621862
 7 -7.00300678357836 -1.48992155345535 -0.01003364786479
 6 -8.10050271187119 -2.31235123182318 -0.32253545154515
 6 -7.60346793189319 -3.69357668006801 -0.40076108620862
 6 -6.23214883608361 -3.62468162906291  0.03102484188419
 6 -6.01175746444644 -2.27670648514852  0.25998218251825
 6 -8.45757428092809 -4.84986236403640 -0.60314313021302
 6 -4.96646285078508 -4.44215001310131  0.19627765346535
 8 -4.78424017271727 -5.56726726502650 -0.28098759215922
 6 -3.92814654005401 -3.49866042524252  0.53029767696770
 6 -3.54261777267727 -3.75278145364536  1.90463017601760
 8 -4.07436267636764 -4.17533426822682  2.83304197399740
 8 -2.03563523842384 -3.55847215251525  1.87782772197220
 6 -1.44264278637864 -3.89595468556856  3.13767819301930
 6  3.11724361716172 -2.18100327722772 -1.87475871997200
 6  4.15928969636964 -1.30958795989599 -1.20724625692569
 6  5.14110486588659 -0.96062293369337 -2.10276647824782
 6  5.22395637943794 -1.59728286298630 -3.42583956615662
 6  6.25389921452145  0.06999934703470 -1.57654421292129
 6  7.49053774777478 -0.60973675577558 -1.02877961526153
 6  8.55390795109511  0.30157579217922 -0.47447592809281
 6  9.76237932733273 -0.33368028832883  0.29836153045305
 6  9.51391890819082 -0.91125994069407  1.72985735453545
 6  10.94056638663866  0.52072692689269  0.32887772617262
 6  12.32894816531653 -0.09752844564456  0.67319563076308
 6  13.37049859245925  1.03440071477148  0.65058795719572
 6  14.82146848204821  0.37606088418842  0.59652431453145
 6  15.16852184028403 -0.01835411591159  2.07700762476248
 6  15.90559018741874  1.34397929992999  0.08817202250225
 6  17.21835131323132  0.76986221062106  0.00942406850685
 6  18.51503105050505  1.78564575577558 -0.15844599139914
 6  19.82310451155115  1.13872236703670 -0.54253433713371
 6  19.58792859415942  0.04112954325433 -1.58903469466947
 6  21.02432960186019  2.12988440644064 -0.64119921582158
 1 -3.68455909420942  3.74590584158416  1.13987338903890
 1 -9.52337632013201  4.00269935503550 -0.58986262016202
 1 -10.52126461806181 -2.48872927222722 -1.00813363926393
 1 -2.33036555335534 -0.98308592639264  2.03014306260626
 1 -1.66194553315332  1.12315279147915  0.23767022042204
 1 -0.93657504120412  0.98385670007001  2.95285599669967
 1 -1.33230140404040  2.48831740814081  2.56684280208021
 1 -2.81766409890989  1.31662954825483  3.08606447554755
 1 -1.99088810911091 -2.38011928492849 -0.32017980478048
 1 -1.65232040104010 -0.55352682558256 -0.91745153595359
 1  0.10496849514951 -0.37871930523052  0.95256112131213
 1  0.33285956615661 -1.90573690749075  0.77245747784778
 1 -3.78478300870087  6.23166099399940  0.27388234593459
 1 -5.46868714931493  6.79681235713571  1.06712361846185
 1 -4.16006703490349  5.80883984498450  1.94313208550855
 1 -9.16643965806581  5.92674778397840  0.37099072327233
 1 -12.17405695929593 -1.33829469696970 -0.59128355555556
 1 -12.90055627062706  0.02077847764776 -0.58419605600560
 1 -13.23310113321332 -1.52965508090809 -2.84344146124612
 1 -12.32636960076008 -0.15028760726073 -3.00368253775378
 1 -11.65351217561756 -1.65545886288629 -3.33987059445945
 1 -9.52638182148215 -4.54216077167717 -1.29305153315332
 1 -7.82448766336634 -5.79558957155716 -1.14783443534353
 1 -8.80589786978698 -5.31764372557256  0.59733434293429
 1 -3.27789737113711 -3.63595732063206 -0.23547185398540
 1  3.39456107150715 -3.07810508430843 -1.83355907300730
 1  2.96306059485949 -1.99665558055806 -3.07361759705971
 1  4.27521484918492 -1.14187693609361 -0.36294269266927
 1  4.51136419341934 -1.41747522002200 -4.24280439543954
 1  6.40568414681468 -1.78605728112811 -3.99145036893689
 1  5.14220804820482 -2.83034564886489 -3.32537672147215
 1  6.35273569546955  0.49421475887589 -2.48844146134613
 1  5.89721483088309  0.89069461726173 -1.03744800820082
 1  7.29572075097510 -1.35268346544654 -0.27649592799280
 1  7.99596499489949 -1.31274006430643 -1.64046352225222
 1  8.88750088148815  0.60179077387739 -1.35009779507951
 1  8.13245174327433  1.06991217941794  0.20492620102010
 1  9.87872031913191 -1.25898334203420 -0.31280843844385
 1  8.99984222852285 -1.88335715141514  1.66408476927693
 1  10.48576464586459 -1.37824170537054  2.37167905930593
 1  8.74939815141514 -0.21924314671467  2.53135444054405
 1  10.97322095989599  1.10581334123412 -0.94219139073907
 1  11.07356710331033  1.51055993159316  1.01433531383138
 1  12.27413495569557 -0.73780622012201  1.53076675997600
 1  12.72659481348135 -1.03264148474848 -0.10046304380438
 1  13.22459732973297  1.73630317531753 -0.27696660126013
 1  13.40660270507051  1.56734098539854  1.69260504990499
 1  15.07627905370537 -0.41807932393239 -0.04970316151615
 1  15.34281418131813  0.73265366086609  2.80544331733173
 1  14.34348162166217 -0.67783545544554  2.70275777387739
 1  16.00621765486548 -0.79106268936894  2.05455193289329
 1  15.70195133003300  1.81044103750375 -0.84187416211621
 1  15.70619465206521  2.17049658515852  0.87855617881788
 1  17.51038235333533  0.09955312591259  0.68668885558556
 1  16.90576810101010  0.39337750695069 -0.88435981338134
 1  18.40035504260426  2.21939848764876 -0.68210119841984
 1  18.73503349944995  2.31745565246525  0.57385405590559
 1  20.13705626682668  0.46704955115512  0.65497884868487
 1  18.66678499649965  0.37064211381138 -2.28600072527253
 1  20.64121841184118 -0.37503930573057 -2.35230936433643
 1  19.05742846984699 -1.00598831723172 -1.26087416211621
 1  21.24514129272927  2.92531211031103  0.17189794339434
 1  21.90647838813882  1.66035261796180 -0.64902761776178
 1  21.23782043494349  2.96353384058406 -1.83126792309231
 1 -0.59894551965197 -4.57543029242924  2.78874722272227
 1 -2.19582926392639 -4.53864113781378  4.10131076767677
 1 -1.05546956025603 -3.16530500760076  3.75070922412241
 8 -11.93170154445445  3.84235903510351 -0.76784859855986
 1 -12.86932744424442  2.10341158125813 -1.33531413641364

