%nproc=4
%Mem=4GB
# td=(NStates=1) iop(3/107=0140000000,3/108=0140000000) iop(3/107=0140000000,3/108=0140000000) CAM-B3LYP/6-31G(d,p) 

TD

0 1
12 -5.71254276087609  1.17353222752275  0.29061766696670
 6 -5.05045543274327 -2.11647011031103 -0.37315418221822
 6 -3.38296708580858  1.13525381018102  2.83224859815982
 6 -6.17816661236124  4.49883314751475  0.59682989178918
 6 -7.92765853295330  1.06055690639064 -2.27832550605061
 7 -4.42627688098810 -0.30092828462846  1.03620495929593
 6 -4.36558008550855 -1.63810751235124  0.75946829642964
 6 -3.26064918941894 -2.37376067886789  1.48541290499050
 6 -2.95142831383138 -1.31793468436844  2.67788434453445
 6 -3.72102953035304 -0.12715534323432  2.21048563376338
 6 -3.33265630503050 -1.73579702110211  4.07038973837384
 6 -1.90090528372837 -2.69428683798380  0.73762906840684
 6 -0.97024866836684 -3.62707028762876  1.38874246224622
 6  0.25692079257926 -3.89744358505851  0.54513270797080
 8  0.60271033533353 -3.30329764336434 -0.48006424062406
 8  1.04118096379638 -4.79927954525453  1.28741334863486
 7 -4.94748556485649  2.53210258715872  1.44566479817982
 6 -4.01437352715272  2.38028545024502  2.45110571387139
 6 -3.70207971167117  3.66917541974197  3.17190774697470
 6 -4.49672022472247  4.62628415671567  2.51109038033803
 6 -5.22633873807381  3.89395749094909  1.50444653695370
 6 -2.72069743284328  3.81643901970197  4.27941213061306
 6 -4.56490302090209  6.05731315181518  2.87620712551255
 8 -3.94976502450245  6.65719360736074  3.68848274817482
 7 -6.90288408830883  2.57488738453845 -0.57196885318532
 6 -6.96815953075308  3.93671328852885 -0.31196288498850
 6 -7.85687087348735  4.57711443624362 -1.24293840334033
 6 -8.32904235753575  3.63924085398540 -2.13499244364436
 6 -7.78307719821982  2.35132114091409 -1.73823977047705
 6 -8.12159515041504  6.06824673407341 -1.30680018881888
 6 -9.39926428972897  3.83222362056206 -3.26333096589659
 6 -8.72585403910391  4.17704585078508 -4.53155955995600
 7 -6.33195161416142 -0.13361837953795 -1.04315940794079
 6 -7.28655818541854 -0.05983205180518 -1.98857306800680
 6 -7.59755726292629 -1.33969567316732 -2.64027655025503
 6 -6.70114966376638 -2.15012458425843 -2.07725389108911
 6 -5.93376179157916 -1.37046061116112 -1.19075520592059
 6 -8.45581103890389 -1.68612873887389 -3.76955385158516
 6 -6.11637530463046 -3.52212779667967 -1.96448000310031
 8 -6.33667806330633 -4.46583428182818 -2.78652491759176
 6 -4.98895745784578 -3.47144519711971 -0.90477279707971
 6 -5.32687016441644 -4.57533297439744  0.15546921872187
 8 -5.75825159675968 -4.45115412351235  1.31672803620362
 8 -4.95131482968297 -5.84454565096510 -0.28435157975798
 6 -5.24574213841384 -6.94921677497750  0.48519034883488
 6  2.33181415461546 -5.00065118531853  0.61487544194419
 6  3.36747128212821 -4.04252441334133  0.94923282308231
 6  3.92916230643064 -3.19606247634764  0.11798543354335
 6  3.67635197409741 -3.23863880518052 -1.32234173867387
 6  5.09524595039504 -2.25874092169217  0.66529032783278
 6  6.41347621892189 -2.70579350455046 -0.00060859345935
 6  7.60956628022802 -1.78960831633163  0.61453714421442
 6  8.97724854615462 -2.06006083968397 -0.15173295579558
 6  9.41351773347335 -3.47683832423242 -0.05230868856886
 6  9.95181576067607 -0.96413665106511  0.30433294879488
 6  11.26510381278128 -0.92379198609861 -0.30023879007901
 6  12.03460114871487  0.33199782728273  0.07996484408441
 6  13.43424588038804  0.44872974287429 -0.63405816901690
 6  14.31182948194819 -0.78526792939294 -0.35881003190319
 6  14.19762570217022  1.80027619921992 -0.10619987478748
 6  15.41220541094109  2.13036106430643 -0.89830482548255
 6  16.03054563896390  3.56884163696370 -0.53425403860386
 6  17.35934118321832  3.96117395899590 -1.26857079227923
 6  17.12021461116111  4.08310320202020 -2.83634585878588
 6  17.85582498859886  5.18182344764476 -0.63874333323332
 1 -2.69848557135714  1.02518679407941  3.72891335973597
 1 -6.48304628342834  5.58779415981598  0.95320431213121
 1 -8.49599000620062  1.07272757565757 -3.17837331613161
 1 -3.67594865966597 -3.31108642404240  2.06395445624562
 1 -1.88522564646465 -0.99179684128413  2.49390066616662
 1 -3.02424220332033 -2.71271443264326  4.40563410741074
 1 -3.13007380008001 -0.88617852225222  4.97565959575958
 1 -4.43169568126813 -1.98373745464546  4.22485643614361
 1 -2.16918223192319 -3.26496601390139 -0.15630625442544
 1 -1.44638247064706 -1.74064318061806  0.29656777837784
 1 -0.60879631313131 -3.30815211081108  2.32737695639564
 1 -1.21520624222422 -4.58023515471547  1.52115391339134
 1 -1.57826794059406  3.54148367276728  3.96303221292129
 1 -2.80404139423942  4.95807301330133  4.61128738643864
 1 -3.04722771777178  3.13841483898390  4.86318132413241
 1 -5.44095715961596  6.79796399079908  2.46875219661966
 1 -9.85779491299130  2.96122677977798 -3.09076232793279
 1 -10.08066886478648  4.56589043314331 -2.89019931063106
 1 -9.76552635243524  4.39373778777878 -5.07578278057806
 1 -8.22499200860086  5.19076882228223 -4.34746470147015
 1 -8.16652650165016  3.34535389418942 -4.99109903470347
 1 -8.14562215181518 -0.99740028292829 -4.67606860516052
 1 -8.59218020102010 -2.78486189128913 -4.14971760876088
 1 -9.61581166066607 -1.45574239763976 -3.47180408710871
 1 -3.94252160956096 -3.92970779737974 -1.12636592349235
 1  2.47517865086509 -6.05994393739374  0.84426038293829
 1  2.27541828522852 -5.32718969506951 -0.36795024462446
 1  3.60978310061006 -3.97812709450945  2.08971397899790
 1  2.70131511821182 -3.68124374547455 -1.47158969997000
 1  3.78073268656866 -2.26958051735174 -1.80100257075708
 1  4.18114028802880 -3.98321205040504 -1.88053697959796
 1  4.74398443934393 -1.24206063006301  0.37086897039704
 1  4.96964549184919 -2.37105873827383  1.51295617591759
 1  6.61345887258726 -3.65875906800680 -0.10955307130713
 1  6.27504766516652 -2.37820542954295 -1.04412500800080
 1  7.30791972327233 -0.89908323342334  0.44346159165917
 1  7.67275937883788 -2.01002758585859  1.80126451175118
 1  8.95696980628063 -1.77724599979998 -1.13867720582058
 1  8.63591811051105 -4.16372514391439 -0.26539033143314
 1  10.18702804360436 -3.79942414451445 -0.85026514001400
 1  9.90186924832483 -4.06926801830183  0.98889933263326
 1  9.59213836443645  0.09292501870187  0.29897526132613
 1  10.03613371087109 -1.04473100700070  1.27218675867587
 1  11.93142828412841 -1.97828786068607 -0.23467784098410
 1  11.02157824452445 -0.76354925982598 -1.35506684028403
 1  11.46409744324433  1.22546697589759  0.14149459425943
 1  12.19301412471247  0.38432962436244  1.20973925412541
 1  13.37621442214221  0.29898433073307 -1.77660989968997
 1  14.80853019131913 -1.04829304200420  0.75863154315432
 1  13.64528009900990 -1.68033705000500 -0.58233455495550
 1  15.15946693509351 -0.54926812501250 -0.97932482498250
 1  13.68614680888089  2.66283090219022 -0.45328711641164
 1  14.23794049434944  1.60545083428343  0.92345955985599
 1  16.17496915271527  1.50519913261326 -0.93619010971097
 1  15.19783536693669  2.15000891369137 -1.80798217791779
 1  15.35415682028203  4.42724810281028 -0.75231722982298
 1  16.26095886598660  3.34356099749975  0.56750665106511
 1  18.01767544894490  3.17794928612861 -1.11523060266027
 1  16.45223594399440  4.91286781568157 -3.40628298809881
 1  18.11673759725973  4.22312182548255 -3.57722232733273
 1  16.53558375857586  3.28307937793779 -3.25744377897790
 1  17.99257530473047  5.16987820532053  0.36809847404740
 1  18.82054957725773  5.41009516171617 -1.12246916131613
 1  17.17349890079008  6.09871937503750 -0.89237329862986
 1 -4.92251755315532 -7.81402083518352 -0.17834137183718
 1 -6.28195262556256 -6.97295438203820  0.86607011451145
 1 -4.41983015161516 -7.06489806540654  1.43818827542754
 8 -7.76541413301330  6.89884638543854 -0.42580036403640
 1 -8.71053935103510  6.41758740364036 -2.32217790059006

