%nproc=4
%Mem=4GB
# td=(NStates=1) iop(3/107=0140000000,3/108=0140000000) iop(3/107=0140000000,3/108=0140000000) CAM-B3LYP/6-31G(d,p) 

TD

0 1
12 -5.62311381798180  1.21808668296830  0.24436304150415
 6 -5.12461284848485 -2.14742320562056 -0.34169103590359
 6 -3.50635942504250  1.14985527032703  2.72954832813281
 6 -6.22415121082108  4.57365062926293  0.61174138293829
 6 -8.09800556765676  1.26990784148415 -2.39133680718072
 7 -4.27652190549055 -0.23466165796580  1.04326566536654
 6 -4.24022755025503 -1.60738444004400  0.69105145474547
 6 -3.26640976547655 -2.35511881468147  1.40957532123212
 6 -2.86701987298730 -1.35196808770877  2.62975953205321
 6 -3.64126155355536 -0.10427305500550  2.17403198839884
 6 -3.41141418081808 -1.77102054345435  3.98110080948095
 6 -1.93281847504750 -2.73191060036004  0.60446575207521
 6 -0.99280092359236 -3.58527610821082  1.33964755275528
 6  0.27684278477848 -3.94386822752275  0.52908110281028
 8  0.48392845714571 -3.39629694329433 -0.52289852405241
 8  1.12032887858786 -4.76708632593259  1.18674328162816
 7 -4.89076989328933  2.58483786068607  1.43301353305331
 6 -4.01432352215222  2.35936335803580  2.43966456975698
 6 -3.73024252795279  3.74148265046505  3.14562511871187
 6 -4.61204175687569  4.60751227952795  2.58150742204220
 6 -5.24875097929793  3.95377347254726  1.46074216651665
 6 -2.74977034013401  3.78528590439044  4.25503969336934
 6 -4.65716224682468  6.01573899439944  2.89731923672367
 8 -3.97421746974697  6.58739662766277  3.76471037093709
 7 -6.95093889378938  2.70805070087009 -0.66264792109211
 6 -6.98101081588159  3.99260887808781 -0.41723341204120
 6 -7.99142432883288  4.63227995279528 -1.22490660016002
 6 -8.63349280258026  3.67615454535454 -2.00253919831983
 6 -8.00641953245325  2.44593060186019 -1.71185713221322
 6 -8.35198818971897  6.04068397779778 -1.11363087188719
 6 -9.59907427072707  3.81987238543854 -3.16325095789579
 6 -8.91256270997100  4.02512065826583 -4.50348675267527
 7 -6.43565198419842 -0.10335535323532 -1.05987107910791
 6 -7.49226875647565 -0.01600766936694 -1.99724393509351
 6 -7.67356486368637 -1.29739144274427 -2.70689321192119
 6 -6.73215276407641 -2.12905247704770 -2.10012617831783
 6 -6.11200961636164 -1.46639020412041 -1.08463459385939
 6 -8.69104456225623 -1.64280440644064 -3.73052994919492
 6 -6.20126379347935 -3.50971655555556 -2.07060061516152
 8 -6.54541893739374 -4.47784548294829 -2.70444670977098
 6 -5.03724228632863 -3.42493054565457 -0.96421874167417
 6 -5.35150262766277 -4.58638407950795  0.12680635243524
 8 -5.70003577517752 -4.43755276337634  1.20383674707471
 8 -5.06688638683868 -5.77732892929293 -0.36004914951495
 6 -5.25515307950795 -6.99684153745375  0.46474830463046
 6  2.46952792599260 -5.19471059125913  0.64806876127613
 6  3.53617815281528 -4.15374553545355  1.00439833963396
 6  4.07310670087009 -3.30061293139314  0.20298393339334
 6  3.91359569846985 -3.08244318561856 -1.28304780928093
 6  5.26463288908891 -2.41306635423542  0.78377217601760
 6  6.59567443874387 -2.69684260946095  0.14868633603360
 6  7.70388571217122 -1.76666602210221  0.73257894839484
 6  9.04715553685369 -2.02262709630963  0.01839405690569
 6  9.51122750445045 -3.55363600400040  0.23838038033803
 6  10.02968354745474 -0.87681791919192  0.43471598709871
 6  11.35746304870487 -0.83840344724472 -0.34585335153515
 6  12.35758344694469  0.21303593109311  0.16090293789379
 6  13.73416587238724  0.35906077597760 -0.55548031123112
 6  14.62977127612761 -0.84343374597460 -0.23031718261826
 6  14.36482242184218  1.67332350395039 -0.18512776757676
 6  15.51737592799280  2.08596662486249 -0.98659365436544
 6  15.98622120652065  3.50884563736374 -0.65312592579258
 6  17.37938318741874  3.97594543614361 -1.31770570577058
 6  17.23808639833983  4.00003489518952 -2.92781500570057
 6  17.86436584268427  5.40796606190619 -0.80821027992799
 1 -2.80870659345935  1.14589886528653  3.82056252465247
 1 -6.58941692049205  5.64408978937894  0.92874186588659
 1 -8.77484789198920  1.09311961486149 -3.13863934273427
 1 -3.91761282608261 -3.09483479887989  1.70013807460746
 1 -1.73394051795180 -1.03126078767877  2.56268754485449
 1 -2.90040982008201 -2.63805696689669  4.51562510651065
 1 -3.32752354505451 -0.93525342974297  4.66498852865287
 1 -4.55112762446245 -1.84375345624562  3.92692664316432
 1 -2.19468478217822 -3.30795031233123 -0.14311493529353
 1 -1.42775060746075 -1.78555767206721  0.44108222982298
 1 -0.47116254975498 -3.20429172477248  2.19383360206021
 1 -1.32660738233823 -4.62142927412741  1.79532133013301
 1 -1.62623273707371  3.33409293369337  4.04513042274228
 1 -2.64503549364937  4.81062826882688  4.45003126082608
 1 -3.06899989498950  3.34818581608161  4.98906391239124
 1 -5.41376444034403  6.78499269366937  2.44464978637864
 1 -10.51407054055406  2.99496015311531 -3.28095134683468
 1 -10.20559135703570  4.71164500860086 -2.84873516421642
 1 -9.47000680048005  4.15896431043104 -5.35292049434944
 1 -8.17794730413041  4.85797554295430 -4.63399335433543
 1 -8.43021287028703  3.00169952875288 -4.80248017281728
 1 -8.53402099169917 -0.95499604250425 -4.63452445074507
 1 -8.57584856785679 -2.60271367646765 -4.18531116811681
 1 -9.66994707420742 -1.59586641004100 -3.50945785248525
 1 -3.99623698109811 -3.88295312191219 -1.53209649654965
 1  2.44833596659666 -6.28460640364036  1.13331928882888
 1  2.38789953335334 -5.52613959005901 -0.31830528012801
 1  3.90165228752875 -4.41386066786679  1.96157116471647
 1  2.82170715741574 -3.14584020512051 -1.19323186418642
 1  4.29112372567257 -2.00202376167617 -1.43248571907191
 1  4.42474464846485 -3.77082081128113 -2.05900482638264
 1  5.00307034793479 -1.39776620062006  0.73123500700070
 1  5.29896842414241 -2.46385801820182  1.84408928922892
 1  6.87530505720572 -3.60655384748475  0.28948683268327
 1  6.42856301670167 -2.64496210521052 -1.01454204970497
 1  7.25131406270627 -0.68541186628663  0.59821706720672
 1  7.84177628052805 -1.91561814491449  1.77213159845985
 1  8.84252836213621 -1.79826810201020 -1.08434177227723
 1  8.74037855655565 -4.23020179157916 -0.05900969336934
 1  10.32439177997800 -3.69711391349135 -0.53479359285929
 1  9.91794085548555 -3.73780487198720  1.12154259695970
 1  9.40142929352935  0.09442516871687  0.33491885568557
 1  10.21193129062906 -1.08060459435944  1.39431897189719
 1  11.69463460476048 -1.80246027792779 -0.19486385958596
 1  11.01656774347435 -0.72917582248225 -1.35019635323532
 1  11.88961999549955  1.28165259445945 -0.03089264446445
 1  12.50337516081608  0.17239843124312  1.14413269346935
 1  13.56926372707271  0.47234166646665 -1.69863210191019
 1  15.14853419171917 -0.67382559525953  0.80138581858186
 1  14.13380895189519 -1.81298031433143 -0.09342566406641
 1  15.37875886428643 -0.78901209940994 -0.89841673417342
 1  13.55493368756876  2.51794641374137 -0.30578236593659
 1  14.68458515881588  1.65072536173617  0.91023823772377
 1  16.43329498529853  1.41492010471047 -0.92984947564757
 1  15.33975955935594  2.04940885368537 -2.18587996769677
 1  15.17073847844784  4.12910828882888 -0.97605960406041
 1  16.12539530963096  3.78247488888889  0.46010591099110
 1  18.37267094849485  3.38104959615962 -1.05892497209721
 1  16.38753947434743  4.71159768866887 -3.18435079487949
 1  18.18553447694769  4.42807232053205 -3.38328293339334
 1  17.06471667186719  3.01919298929893 -3.44026206080608
 1  17.68125417261726  5.42686390389039  0.37051871607161
 1  18.86229375167517  5.70111426362636 -1.18278519291929
 1  17.18958050895089  5.98911841494149 -1.19927398869887
 1 -5.07856315771577 -7.92926235933593 -0.08427196489649
 1 -6.24398882918292 -6.90927801440144  0.89649315681568
 1 -4.44780294889489 -7.01033260886089  1.22417687428743
 8 -7.87127471907191  6.86998349914991 -0.44023180718072
 1 -9.18664696179618  6.31004664956496 -1.77067275007501

