%nproc=4
%Mem=2GB
# td=(NStates=1) iop(3/107=0140000000,3/108=0140000000) iop(3/107=0140000000,3/108=0140000000) CAM-B3LYP/6-31G(d,p) 

TD

0 1
12 -6.87414998709871  0.59442858695870  0.13269088858886
 6 -4.55017212371237 -2.11021944374437  0.36508678567857
 6 -4.37782959835984  2.81979361246125  0.92529541114111
 6 -9.08211091579158  3.11072509660966 -0.24355385708571
 6 -9.35202329992999 -1.86610964056406 -0.65287534623462
 7 -4.74203927582758  0.50665006270627  0.63406243834383
 6 -4.02154942054205 -0.75842554935494  0.72750330573057
 6 -2.56830024862486 -0.45351711091109  1.08608067036704
 6 -2.39650961676168  1.01878202700270  1.32162432493249
 6 -3.96985324822482  1.56247633283328  1.00696547124712
 6 -2.00007629332933  1.52996479237924  2.75008957175718
 6 -1.57548629702970 -0.95664822822282 -0.01616028972897
 6 -0.04356247454745 -0.71479318591859  0.30452952645265
 6  0.74848592779278 -1.13490072697270 -0.92364053785379
 8  0.55977604570457 -0.96301891439144 -2.18924991519152
 8  1.98504879147915 -1.59563986258626 -0.29344426692669
 7 -6.66655839803980  2.62692306230623  0.25821956985699
 6 -5.77377793869387  3.26865550875088  0.79680597679768
 6 -6.06531074627463  4.80732041684168  0.72204707330733
 6 -7.35131584498450  4.89404549504951  0.40200678397840
 6 -7.85614731863186  3.57207601600160  0.04598943034303
 6 -5.04486940724072  5.82243967446745  1.20508817681768
 6 -8.28661022232223  6.24261118121812  0.46113563726373
 8 -7.63579749594959  7.23348496509651  0.63622147894790
 7 -8.85986954045405  0.58436929612961 -0.49873252235224
 6 -9.72864653705371  1.77326206150615 -0.58957000930093
 6 -11.06154278457846  1.43169304040404 -0.94133991519152
 6 -11.08741309880988  0.03598450285029 -1.11789264476448
 6 -9.76743840714071 -0.57176533973397 -0.79966204290429
 6 -12.06168294359436  2.42481867496750 -1.18834348514852
 6 -12.17108022852285 -0.74662822512251 -1.57920605430543
 6 -12.22114897699770 -1.05039720492049 -3.04453724842484
 7 -7.01572805570557 -1.43946650795079 -0.09311195569557
 6 -8.06773943554355 -2.31986198289829 -0.32899609760976
 6 -7.66589417451745 -3.69028635103510 -0.29591060116012
 6 -6.32932855405540 -3.68518767966797  0.02985472487249
 6 -5.92671896059606 -2.21001981648165  0.18924510881088
 6 -8.54766328982898 -4.96089346714671 -0.51059387528753
 6 -5.11133733823382 -4.54078987708771  0.23285131083108
 8 -4.72154390309031 -5.71278181648165  0.01421192779278
 6 -3.83990771617162 -3.44697525672567  0.45838048524853
 6 -3.27768127902790 -3.75775195069507  1.77485719871987
 8 -3.93070831093109 -3.75410214501450  2.86191486128613
 8 -2.01529320422042 -3.58109441474147  1.78145808500850
 6 -1.48219674177418 -3.78413350345035  3.12556698189819
 6  3.10803269606961 -1.85885106200620 -1.11234247834783
 6  4.10232399979998 -0.66373337443744 -1.09543507580758
 6  5.27134789018902 -0.81303817521752 -1.98291449304931
 6  5.52134611841184 -1.76813994869487 -3.08234521672167
 6  6.27649147374738  0.34341668876888 -1.54991154965497
 6  7.47737643164316 -0.35684146624662 -0.94192092939294
 6  8.66862942324232  0.46529216381638 -0.42970145064506
 6  9.88106119551955 -0.30690761106111  0.28551024532453
 6  9.58323583988399 -0.94665348004800  1.83747811661166
 6  11.06749907990799  0.72506736093609  0.19966480488049
 6  12.41804707520752 -0.22442113491349  0.32505081628163
 6  13.58538008060806  0.79552682738274  0.41442434083408
 6  14.96951328652865  0.10970424852485  0.52713737583758
 6  15.20216520462046 -0.69515179567957  1.60036996099610
 6  16.20097972637264  1.08476337833783  0.35465867116712
 6  17.39039851795179  0.43898912331233 -0.20072694659466
 6  18.44852439983999  1.62189938113811 -0.41234138093809
 6  19.92740494159416  0.83736223102310 -0.57468755245525
 6  20.16123592489249  0.30280571087109 -1.95503129432943
 6  21.17769493839384  1.92712413041304 -0.42243733963396
 1 -3.43746438473847  3.67939919091909  1.09285868756876
 1 -10.10306428892889  3.79881896699670  0.04786115221522
 1 -10.04656714831483 -2.70987138643864 -0.81633445934593
 1 -2.29938245504551 -1.09245686348635  2.07562761106111
 1 -1.63749308790879  1.65044552075208  0.46726317971797
 1 -0.95288667236724  1.33857217161716  3.18764947604760
 1 -2.01038921282128  2.61502007840784  2.84843096089609
 1 -2.76767910041004  0.75083296859686  3.43451932103210
 1 -1.49741876217622 -2.04632590559056 -0.29264705150515
 1 -1.88860402940294 -0.35467694059406 -0.91120091089109
 1  0.55322332063206  0.11511007770777  0.52675854105411
 1  0.24315059525953 -1.25000133393339  1.51186141824182
 1 -4.00134466486649  5.98302613051305  0.72561751945195
 1 -5.56223650425043  6.82111478737874  0.97100400650065
 1 -4.66089711791179  5.71378033903390  2.16329410171017
 1 -9.50457347144715  5.94607971717172  0.02457608180818
 1 -12.25229478307831 -1.73630449794980 -0.81136556375638
 1 -13.51879809480948 -0.58348194839484 -1.28516615301530
 1 -13.28470629372937 -1.50653276867687 -3.17694481158116
 1 -11.97669463326333 -0.13525610411041 -3.65259742924293
 1 -11.21053787818782 -1.90467378437844 -3.10859746714671
 1 -8.76242542584258 -4.87289384498450 -1.28817104510451
 1 -8.39603481808181 -5.93438345094510 -0.24756440834083
 1 -9.31485876587659 -4.88337029822982  0.05182979247925
 1 -2.98416799819982 -3.32346607150715 -0.46783509030903
 1  3.38767038243824 -3.02170944474448 -0.75517123422342
 1  2.58321261006101 -2.19969588458846 -2.17722795809581
 1  3.90360768846885  0.21998925052505 -0.32623902230223
 1  4.91882493949395 -1.96626009850985 -3.95219533453345
 1  6.29202278067807 -1.48210688608861 -3.45991721562156
 1  5.49226305370537 -2.51303391769177 -2.91419560336034
 1  6.66197661956196  0.83283862126213 -2.60098271547155
 1  5.71717682708271  1.18664421222122 -0.93532779617962
 1  7.18251943084308 -0.96264446154615 -0.04735301370137
 1  7.67134253265326 -1.19416820712071 -1.65547502340234
 1  9.29825195659566  1.00286088088809 -1.21277406270627
 1  8.23765226332633  1.18532372057206  0.29061476987699
 1  10.43621606870687 -1.50083752745275 -0.47528468606861
 1  8.80291253555356 -1.75694451015102  1.90136849764977
 1  10.41719778917892 -1.25345922712271  2.57012890429043
 1  9.10140335193519  0.25139391699170  2.17220852595260
 1  11.05205884368437  1.55348810871087 -0.93533070467047
 1  11.10232997959796  1.45232410801080  1.07000088038804
 1  12.28576611881188 -0.74141658115812  1.28108179147915
 1  12.78781093509351 -0.91910013061306 -0.52686568406841
 1  13.46999186918692  1.45720526552655 -0.37858676327633
 1  13.37880992579258  1.54989924122412  1.15857164656466
 1  14.67435886168617 -0.66860437643764 -0.31672986418642
 1  14.80902080198020 -0.16797640214022  2.79040181318132
 1  14.45722299579958 -1.32394006590659  1.67796529462946
 1  16.30691772487249 -0.92547613071307  1.91624810251025
 1  16.01996313121312  1.94153414681468 -0.32892286698670
 1  16.51384541714171  1.49058859435943  1.45299362256226
 1  17.59947126222622 -0.36937376677668  0.69173936063606
 1  17.32777030123012 -0.36223805460546 -1.00193157055706
 1  18.36234124122412  2.29145569336934 -1.12884587288729
 1  18.47340733683368  2.22763667056706  0.41078774927493
 1  19.97825038623862  0.23813665986599  0.20183353415342
 1  19.79022734073407  0.82347739733973 -2.66700882608261
 1  21.00620491049105 -0.01333313511351 -1.97060119351935
 1  19.57763049004901 -0.63318103650365 -2.01832990769077
 1  20.90381716031603  2.65249482858286  0.27264801840184
 1  22.26421416171617  1.17096367906791 -0.47142985798580
 1  21.57738439133913  2.61114860206021 -1.49841463776378
 1 -0.52518814391439 -3.81070381978198  2.58495684368437
 1 -1.62020170117012 -4.50036731043104  3.94094473107311
 1 -0.86899091239124 -3.07490596769677  3.22294644784478
 8 -11.79375775007501  3.68562336153615 -1.00314212791279
 1 -13.15008552005201  1.87655889598960 -1.41953255825583

