%nproc=4
%Mem=4GB
# td=(NStates=1) iop(3/107=0140000000,3/108=0140000000) iop(3/107=0140000000,3/108=0140000000) CAM-B3LYP/6-31G(d,p) 

TD

0 1
12 -5.60069157575758  1.19391426572657  0.25078368356836
 6 -5.11801218841884 -2.17824628792879 -0.26957382418242
 6 -3.31018980808081  1.14722500730073  2.68191356465647
 6 -6.12571136683668  4.52425568976898  0.68348855765577
 6 -7.99971573867387  1.19395024572457 -2.37839551305130
 7 -4.48669292259226 -0.30192838463846  1.04183552235224
 6 -4.38840236773677 -1.71873557515752  0.79805215481548
 6 -3.19255237973797 -2.30459376217622  1.50965532923292
 6 -2.92312548354835 -1.32875576647665  2.60957751385139
 6 -3.55199262666267 -0.04754738243824  2.04945953115312
 6 -3.57188022742274 -1.69190263166317  4.02060475987599
 6 -1.94230942414241 -2.65023243254325  0.64131943744374
 6 -1.15082672617262 -3.71981956255626  1.38108169616962
 6  0.16738183868387 -4.05668950965097  0.49907810251025
 8  0.31006107040704 -3.62452976657666 -0.64484071827183
 8  1.05238208390839 -4.79784940224022  1.11000560786079
 7 -4.81582239853985  2.64136351325133  1.45257548924893
 6 -3.96431852165217  2.43262068376838  2.44543514681468
 6 -3.56536604030403  3.70454895709571  3.05567612381238
 6 -4.39864041674167  4.54761628992899  2.57564683598360
 6 -5.11018712291229  3.97777587278728  1.49420551285129
 6 -2.59431479457946  3.90977835363536  4.18714290369037
 6 -4.48532506310631  5.98482590309031  2.78319782458246
 8 -3.79230927892789  6.60238812681268  3.63615751565156
 7 -6.86095989588959  2.54942483828383 -0.68583023932393
 6 -6.85503821862186  3.77365698289829 -0.31241292999300
 6 -7.86743192959296  4.52573929872987 -1.15464957445745
 6 -8.40588004130413  3.53777070697070 -2.01133007740774
 6 -7.72983187368737  2.44826083488349 -1.70499644614461
 6 -8.17588057895790  5.97091700110011 -1.12833234203420
 6 -9.39171353465347  3.80995139333933 -3.11072570537054
 6 -8.75530698439844  4.14279242544254 -4.48703510751075
 7 -6.54779319831983 -0.12941795949595 -1.05667075907591
 6 -7.38732826242624 -0.05111117971797 -2.08385259595960
 6 -7.54441194839484 -1.36684838843884 -2.73776629922992
 6 -6.69708925772577 -2.21456102790279 -2.05225139083908
 6 -5.97026544194419 -1.38092165726573 -1.08482461286129
 6 -8.60643610141014 -1.66029615561556 -3.78032492869287
 6 -6.24156782388239 -3.57153273717372 -1.88864241934193
 8 -6.63346774227423 -4.49394709310931 -2.54330059515952
 6 -5.08687724982498 -3.56697475007501 -0.83733605340534
 6 -5.35554303170317 -4.67062250335034  0.12481615341534
 8 -5.75879165076508 -4.45659466756676  1.32303866726673
 8 -5.14105380358036 -5.88642983938394 -0.48428157275728
 6 -5.38033559775978 -6.85220707400740  0.44840667046705
 6  2.37526850005001 -5.12905402560256  0.48065201960196
 6  3.44708924392439 -4.16468662956296  1.06917481728173
 6  3.98047743794379 -3.16475934603460  0.23090672567257
 6  3.57413175207521 -2.99914485578558 -1.22259176367637
 6  5.06311273707371 -2.31528657625763  0.63825762456246
 6  6.46713158445845 -2.66066899209921  0.07599906730673
 6  7.62315763936394 -1.73397275277528  0.52358804930493
 6  8.94777559885989 -1.93955878947895 -0.13588137063706
 6  9.52775915761576 -3.34576521692169 -0.07855131283128
 6  9.93340391949195 -0.86238647604760  0.49419193469347
 6  11.32044934733473 -0.77170677757776 -0.32176094229423
 6  12.25893358195819  0.33028765626563  0.23870071767177
 6  13.57090954675468  0.40225509540954 -0.53821858505851
 6  14.46508480748075 -0.70920032263226 -0.22511666256626
 6  14.25132107170717  1.76482265386539 -0.06504575937594
 6  15.43493768416842  2.17336536473647 -0.93120811581158
 6  15.97738032243224  3.58183293609361 -0.62688330153015
 6  17.30146539563956  4.01673951555156 -1.26468040324032
 6  17.14527711741174  4.15104999669967 -2.87596982118212
 6  17.93306271237124  5.23954922022202 -0.73190264916492
 1 -2.67536325912591  1.05270954635464  3.81970243864386
 1 -6.25578355715572  5.65677105750575  0.61601059275928
 1 -8.69229963716372  1.16071637453745 -3.11217669646965
 1 -3.60764182898290 -3.17899321472147  1.97818587938794
 1 -1.81885900980098 -0.90648831043104  2.63514479057906
 1 -3.01609138823882 -2.80858401960196  4.24936848084809
 1 -3.26297709040904 -1.06050595499550  4.88861089088909
 1 -4.56713922562256 -1.82919200010001  4.06085003550355
 1 -2.35272058575858 -3.21633115041504 -0.17499812361236
 1 -1.11415924832483 -1.89829894619462  0.29383750535054
 1 -0.86446187968797 -3.33586488208821  2.15676989568957
 1 -1.46540126172617 -4.64038116931693  1.60645244324432
 1 -1.56547666146615  3.81797132153215  3.83055896559656
 1 -2.81580257035704  5.00395760176018  4.70840709840984
 1 -2.66282927792779  2.89679067656766  4.98810381638164
 1 -5.34812787668767  6.42067626202620  2.16064138553855
 1 -9.96281541504150  2.86030668776878 -3.32843609530953
 1 -10.03845464336434  4.45252909700970 -2.89615990669067
 1 -9.39078887868787  4.15457387138714 -5.27473267556756
 1 -8.10544005340534  5.07925767116712 -4.29578953395340
 1 -8.12166201520152  3.33442280108011 -4.73057298209821
 1 -8.47846543614361 -1.10244078697870 -4.67409840814081
 1 -8.59920090309031 -2.70512391749175 -4.09848248524852
 1 -9.58691877137714 -1.23429025242524 -3.30104701140114
 1 -4.21679903730373 -3.81544637123712 -1.49046233313331
 1  2.67178831183118 -6.06928487148715  1.01763772067207
 1  2.17639838323832 -5.10889786588659 -0.53241669126913
 1  3.93893601590159 -4.54424370617062  2.17352235983598
 1  2.45209019571957 -3.07782340344034 -1.74616715771577
 1  3.68727334063406 -1.93580714001400 -1.58698116861686
 1  4.19213138713871 -3.71368509770977 -1.80438936483648
 1  4.86436647754775 -1.20697712171217  0.47662954645465
 1  5.11632015931593 -2.34103573597360  1.76416129642964
 1  6.59706723342334 -3.73488668076808  0.14070195419542
 1  6.43998415881588 -2.47803541254125 -0.90971156665667
 1  7.35306423772377 -0.82830615571557  0.46074331983198
 1  7.71336343924393 -2.20336691979198  1.58491287658766
 1  8.62695680498050 -1.62885116031603 -1.09360269836984
 1  8.77339185788579 -4.09901867326733 -0.46153994639464
 1  10.58796813761376 -3.49233343544355 -0.38484859835984
 1  9.89374843624362 -3.64703579507951  0.88735917861786
 1  9.57197634823483  0.03439916611661  0.36874223802380
 1  10.18630872837284 -0.92560909480948  1.45854539453945
 1  11.83219836113611 -1.88169820172017 -0.16091046424642
 1  10.94240032673267 -0.57888079297930 -1.32328366196620
 1  11.82172320582058  1.38827325652565  0.24326477127713
 1  12.51262608590859  0.14040523192319  1.29566784698470
 1  13.32786958765877  0.61715614791479 -1.60377261596160
 1  14.78280761906191 -0.66496470917092  0.93159883988399
 1  13.98498406940694 -1.72767178347835 -0.37300362186219
 1  15.31032202060206 -0.76781998019802 -0.81027792029203
 1  13.54992318651865  2.65608022712271  0.01076928922892
 1  14.71925862616262  1.64146443564356  0.92831004490449
 1  16.14336599239924  1.53537214991499 -0.67676416711671
 1  15.09937552095210  2.09417333013301 -2.07830921062106
 1  15.16966837143714  4.33196857485749 -0.82147414551455
 1  16.14284705480548  3.51540818221822  0.40675057545755
 1  18.00161384278428  3.15258674987499 -1.01328040764076
 1  16.19735045544554  4.76627315621562 -2.86026838663866
 1  18.01363728722873  4.28859837313731 -3.39671427652765
 1  16.76929712991299  3.26810788078808 -3.40797883248325
 1  18.16987303450345  5.46586780428043  0.46304796899690
 1  18.77827534983498  5.29545369756976 -1.18392530693069
 1  17.16870842174217  6.13119262236224 -0.89848390969097
 1 -5.34034933633363 -7.95345477857786 -0.09060259795980
 1 -6.46955138543854 -6.69069615621562  0.89755326282628
 1 -4.65224339293929 -6.98420999659966  1.41462591919192
 8 -7.65409300090009  6.85675217601760 -0.50033781778178
 1 -9.10488878597860  6.23898954385438 -1.93080876367637

