%nproc=4
%Mem=2GB
# td=(NStates=1) iop(3/107=0140000000,3/108=0140000000) iop(3/107=0140000000,3/108=0140000000) CAM-B3LYP/6-31G(d,p) 

TD

0 1
12 -6.71758433053305  0.67129627372737  0.08965658515852
 6 -4.43461056755676 -1.97953637543754  0.28862913991399
 6 -4.33813562896290  2.78766039913991  0.94493737533753
 6 -9.06488919361936  3.18414243834383 -0.22456195789579
 6 -9.24925302290229 -1.66616964656466 -0.85611567026703
 7 -4.68639371127113  0.43224262196220  0.52605163726373
 6 -3.87911517711771 -0.77961766856686  0.55313586898690
 6 -2.45272869146915 -0.44233599279928  0.91598366066607
 6 -2.50279024482448  1.05058520732073  1.38746090859086
 6 -3.99184544744474  1.45558564376438  0.96162093679368
 6 -2.24060034573457  1.23545534143414  2.92398696149615
 6 -1.38772752115212 -0.90632319571957  0.04019534583458
 6 -0.00022814111411 -1.04618632523252  0.58142721622162
 6  0.78087916711671 -1.29102633953395 -0.74102227602760
 8  0.62240230833083 -0.90579319181918 -1.83455444564457
 8  1.88569885648565 -2.04586488508851 -0.22456737923792
 7 -6.60544228642864  2.67447781778178  0.34966871477148
 6 -5.55199576047605  3.22777142034203  0.76750304650465
 6 -5.96726094129413  4.69286897169717  0.91155602420242
 6 -7.30740145354536  4.77727381788179  0.55510209350935
 6 -7.87917962186219  3.47870667906791  0.25475030643064
 6 -4.93901882218222  5.74258168866887  1.20826849484949
 6 -8.29896145744574  5.97778469856986  0.54033355705571
 8 -7.53740765696570  7.10500211681168  0.41629948674867
 7 -8.79450300380038  0.76161702090209 -0.41523417251725
 6 -9.52772644504450  1.87630236553655 -0.56022707500750
 6 -10.92105873617362  1.59924979607961 -0.87975375657566
 6 -11.09339369686969  0.28232913731373 -1.02781363686369
 6 -9.63642530583058 -0.41008917211721 -0.81491356805681
 6 -11.93223999929993  2.59880607370737 -1.09043369416942
 6 -12.30084320482048 -0.59835339763976 -1.40713884758476
 6 -12.43595045714572 -1.06477864306431 -2.87986078077808
 7 -6.87038352125213 -1.31600416171617 -0.06794943944394
 6 -7.92023468506851 -2.14209420612061 -0.42113531153115
 6 -7.56292387748775 -3.54453177557756 -0.58097910801080
 6 -6.18205382658266 -3.55259442034203 -0.24580284088409
 6 -5.77272356105611 -2.11547036153615 -0.00962477817782
 6 -8.51412993649365 -4.46137351515152 -0.76278909480948
 6 -5.07627383188319 -4.40827662576258  0.08247627332733
 8 -4.69342109080908 -5.54382492079208 -0.16697619101910
 6 -3.89518324372437 -3.31968252745275  0.37620226742674
 6 -3.27286079697970 -3.68193436893689  1.70893060606061
 8 -3.80172541264126 -4.13068980378038  2.72772144194419
 8 -2.04356603150315 -3.65827213251325  1.74593453265327
 6 -1.12751127322732 -4.13758884898490  3.03932835803580
 6  3.08355024782478 -2.48503368026803 -0.94857610171017
 6  4.08189195659566 -1.34187118821882 -0.71867740004000
 6  5.11378213361336 -1.18991586298630 -1.66756295789579
 6  5.38912289608961 -2.01875501020102 -3.02112909510951
 6  6.09393321792179 -0.10965861876188 -1.18935549404940
 6  7.56804549854986 -0.89674545664567 -0.72744948224822
 6  8.50872343264326  0.27280291489149 -0.40102858335834
 6  9.79168225762576 -0.43709062936294  0.16839853415342
 6  9.53091060736073 -0.76551536623662  1.99503387218722
 6  10.91619394939494  0.51951680588059 -0.05297045864586
 6  12.34953022352235 -0.01630032283228  0.15181349254925
 6  13.42079362196220  1.28850612531253 -0.05419252085208
 6  14.81828816401640  0.60787406550655  0.36976163826383
 6  14.77465245334533  0.14411213071307  1.81226115011501
 6  16.07200682908291  1.36648155015502 -0.00972776747675
 6  17.43914339243924  0.61662688708871 -0.11076795069507
 6  18.37236678407841  1.64679187038704 -0.43734388118812
 6  19.78519072017202  0.94342283708371 -0.61470155385539
 6  19.98654845614562  0.19881531183118 -1.97676346754676
 6  20.77930509940994  2.09767118511851 -0.41756685258526
 1 -3.67264790309031  3.36916816781678  0.98480788248825
 1 -9.76086006850685  3.99804888998900  0.04772113821382
 1 -9.96948944054405 -2.61084148344835 -1.23104593049305
 1 -2.36857937473747 -1.33610122792279  1.62421246954695
 1 -1.89818915751575  1.65961643784378  0.78749520292029
 1 -0.79053043674368  1.31490980538054  3.12351306240624
 1 -2.62986116001600  2.26017459385939  3.24727084488449
 1 -2.91429376187619  0.18921680698070  3.62505837493749
 1 -1.98947796809681 -2.04263553655366 -0.25902368916892
 1 -1.51581675067507 -0.09547102000200 -1.07805759655966
 1  0.38454645294529 -0.32651408470847  1.19503536873687
 1  0.16949322952295 -1.95617195099510  1.32004223632363
 1 -4.11989652005200  6.16443427132713  0.15469042674267
 1 -5.63414369496950  6.70393306920692  1.25704261036104
 1 -4.26995802400240  5.29346830783078  2.29243701600160
 1 -9.55546856095610  5.63948905810581  0.59053267746775
 1 -12.56463601720172 -1.41557242474247 -0.99304373157316
 1 -12.98470468546855 -0.11711531173117 -0.91226886328633
 1 -12.99796761986199 -1.99403151855185 -3.27031414851485
 1 -12.60588755255526 -0.33788636713671 -3.86656882638264
 1 -11.58867569196920 -1.38522183918392 -3.31489809720972
 1 -9.09923910721072 -4.28686524212421 -1.61889411741174
 1 -7.98005321992199 -5.26741675427543 -1.12510216211621
 1 -9.44519179917992 -4.47316927812781  0.17397200670067
 1 -3.01245082648265 -3.60878460336034 -0.12124043084308
 1  3.50873248864886 -3.61245851965197 -0.63915963306331
 1  2.56724101290129 -2.39751566656666 -2.12106234153415
 1  3.74922224992499 -0.73760650905091  0.51679528112811
 1  4.66437949494949 -1.86193966646665 -3.82378249324932
 1  6.47368094649465 -1.93330200560056 -3.60199142304231
 1  5.40212403980398 -3.25512812711271 -2.55294947874787
 1  6.31985240714071  0.66891222862286 -2.28676129332933
 1  5.56715182458246  0.68448399619962 -0.47280154355435
 1  6.89318049694969 -1.70683888098810 -0.01551983038304
 1  7.89294469286929 -1.54870366066607 -1.47878735463546
 1  8.44758689008901  0.89946054085409 -1.28160094539454
 1  8.27775627372737  1.01048623682368  0.63576928532853
 1  9.92648509560956 -1.49421686538654 -0.26081323892389
 1  8.60291253555356 -1.49975879157916  2.26399476027603
 1  10.13038910831083 -1.45497937913791  1.93353524492449
 1  9.70114332593259  0.58378715631563  2.52683398849885
 1  10.86352999079908  1.21571433133313 -0.94510168176818
 1  11.02525227182718  1.21418029362936  0.57490137043704
 1  12.50076761896189 -0.42207464696470  1.35778946224622
 1  12.48609076307631 -0.72913113371337 -0.46510950845084
 1  13.04408927892789  1.57619716471647 -0.96266517111711
 1  13.17405945074507  2.02000625192519  0.45614140354035
 1  14.98417984378438 -0.48467598359836 -0.05374356555656
 1  14.56545644554456  0.84054444994499  2.46269904290429
 1  13.92968024152415 -0.73827149904990  1.94136163426343
 1  15.75471250435043 -0.04394797789779  1.98649512721272
 1  15.90208134303430  2.01157115051505 -0.59335931063106
 1  16.04746877947795  1.83380291579158  0.91518984218422
 1  17.60657197229723  0.23162633323332  1.10757094379438
 1  17.38006553075308 -0.17768959975998 -0.77826920432043
 1  18.01536654375438  1.91430797859786 -1.40914390269027
 1  18.18017801390139  2.29994390129013  0.15082175267527
 1  19.81505406660666  0.22800564676468  0.03819717051705
 1  20.17580589858986  0.88323337293729 -2.56704883008301
 1  20.62274656465646 -0.13653545534553 -2.04584871827183
 1  19.14890761776178 -0.34071178957896 -2.38904697939794
 1  20.99105588418842  2.92087166626663  0.40085083868387
 1  21.61859960026003  1.32545912861286 -0.84582729772977
 1  20.84705135803580  2.77912539973997 -1.43587838413841
 1 -0.26533215831583 -4.49395214461446  2.85608395639564
 1 -1.60783046404640 -4.84627190089009  3.83919455605561
 1 -0.94211822512251 -3.32264074117412  3.70583473667367
 8 -11.73435180948095  3.80971577077708 -0.89093090679068
 1 -13.02275278677868  2.25283652375238 -1.36709731473147

