%nproc=4
%Mem=4GB
# td=(NStates=1) iop(3/107=0140000000,3/108=0140000000) iop(3/107=0140000000,3/108=0140000000) CAM-B3LYP/6-31G(d,p) 

TD

0 1
12 -5.67118862546255  1.19163403770377  0.18490709590959
 6 -5.11927231443144 -2.10746921022102 -0.34129099589959
 6 -3.41921071017102  1.19589987478748  2.71193656695670
 6 -6.16515531123112  4.55235850005000  0.61155136393639
 6 -8.03874964206421  1.12655350605060 -2.42650032353235
 7 -4.41166541984198 -0.35087327912791  1.04514585338534
 6 -4.31650517801780 -1.65568927052705  0.61844419401940
 6 -3.28648177267727 -2.35390869366937  1.48963332703270
 6 -2.98707187818782 -1.32075496639664  2.49884644074407
 6 -3.62441986938694 -0.05955858355836  2.08257284248425
 6 -3.57052009140914 -1.81808524992499  3.90204290369037
 6 -2.00146533973397 -2.79451686098610  0.70813611911191
 6 -1.04582622612261 -3.65165274587459  1.44468805680568
 6  0.26135123562356 -3.87077091779178  0.62499069376938
 8  0.40219028332833 -3.51332864646465 -0.45248148234823
 8  1.17427427312731 -4.63481309860986  1.32924753205321
 7 -4.91914273057306  2.65042441934193  1.48123835553555
 6 -4.01855394519452  2.40252767446745  2.46386698999900
 6 -3.70550005370537  3.64750325252525  3.22723327952795
 6 -4.58130868356836  4.53563509180918  2.57095636693669
 6 -5.28015411961196  4.00100819601960  1.46515260756076
 6 -2.57903326642664  3.86498387418742  4.20156434583458
 6 -4.58179471007101  5.90778819931993  2.86032553735374
 8 -3.89950999899990  6.42753064106411  3.77535143504350
 7 -6.80878467836784  2.54675457125713 -0.75155681198120
 6 -6.85123783858386  3.92003162036204 -0.43257494619462
 6 -7.89416460286029  4.57243396819682 -1.15884999449945
 6 -8.51961141444144  3.55810274017402 -2.05085402980298
 6 -7.86554544504450  2.31585759455946 -1.74757070357036
 6 -8.29159215011501  5.97561747114711 -1.08682819161916
 6 -9.59092345564557  3.75665606380638 -3.06610124292429
 6 -9.17657911161116  4.21764991119112 -4.46885328932893
 7 -6.35542396139614 -0.17100211791179 -1.17689278127813
 6 -7.39653918351835 -0.08100416901690 -2.16135034573457
 6 -7.62202971017102 -1.42004370797080 -2.66826934953495
 6 -6.73348289708971 -2.16523609540954 -2.10224639033903
 6 -6.03719213461346 -1.37289085418542 -1.17179330973097
 6 -8.74297975577558 -1.69776990299030 -3.69912680888089
 6 -6.21623529062906 -3.54447003090309 -2.03743729882988
 8 -6.69408380388039 -4.47127482588259 -2.62853911901190
 6 -5.02652121422142 -3.45826387898790 -0.87193951375138
 6 -5.42997047444744 -4.53564900600060  0.01177484928493
 8 -5.77504327592759 -4.40421943004301  1.20577694109411
 8 -5.27077677587759 -5.84200539693969 -0.45274841944194
 6 -5.57867543174318 -6.93855570887089  0.47320915071507
 6  2.36641761496150 -4.98409953015302  0.68247220162016
 6  3.58046258125813 -4.09309947084709  1.03701160096010
 6  4.13506289648965 -3.17377024712471  0.28304193919392
 6  3.67901224012401 -3.02128707000700 -1.13734323882388
 6  5.25538196399640 -2.35181022862286  0.81709550835083
 6  6.61563643494349 -2.66763968916892  0.08597006440644
 6  7.73435875947595 -1.70328968446845  0.69936562706271
 6  9.04878569986999 -1.85041987558756 -0.08941672417242
 6  9.62266864856486 -3.24225486588659 -0.02413587128713
 6  10.00602118121812 -0.84792502990299  0.46059857535754
 6  11.44686198859886 -0.85640524742474 -0.15043380958096
 6  12.35917360596060  0.26724135163516  0.19525637323732
 6  13.62607506330633  0.48855372527253 -0.60706546974697
 6  14.53675197419742 -0.77916731933193 -0.45653980488049
 6  14.34347028662866  1.78153432503250 -0.24005326012601
 6  15.62765695609561  2.14551257945795 -0.89533452845285
 6  16.17412999739974  3.58767352015202 -0.64396500970097
 6  17.51786703580358  3.90620846244624 -1.35859979517952
 6  17.37364995469547  3.99445433713371 -2.86220844504450
 6  18.10018942504250  5.12757802310231 -0.75363482238224
 1 -2.77313303610361  1.12412668806881  3.54189465786579
 1 -6.16447442624262  5.62700808120812  0.58051704340434
 1 -8.76168657585758  1.26637694059406 -3.31756723552355
 1 -3.84483554835484 -3.28627394279428  1.86578463926393
 1 -1.83903102700270 -0.87502516411641  2.61877315341534
 1 -3.04071385048505 -2.57902106330633  4.54472801680168
 1 -3.46432722542254 -0.98786869126913  4.53269529932993
 1 -4.62528504020402 -2.21446052695270  3.81640559105911
 1 -2.19229454315432 -3.34894441174117 -0.26397702150215
 1 -1.60083791619162 -1.67606672297230  0.30307842944295
 1 -0.70785621912191 -3.06554785038504  2.33979819851985
 1 -1.48570329192919 -4.62954008520852  1.59898169616962
 1 -1.56204631843184  4.03785330973097  3.42466837653765
 1 -2.48857984808481  4.71544875087509  4.50212647034704
 1 -2.53966696169617  3.12530352785279  5.02703770977098
 1 -5.48823188708871  6.51005519991999  2.52309763116312
 1 -10.22795192869287  2.93086374347435 -3.21229448114812
 1 -10.36435723362336  4.43860770487049 -2.65278556925693
 1 -10.18450825062506  4.31875028902890 -4.94510971327133
 1 -8.83763327272727  5.24261400680068 -4.49697965296530
 1 -8.34878472747275  3.65741510031003 -4.81159108390839
 1 -8.57500509010901 -1.10656119901990 -4.67631863016302
 1 -8.54962594559456 -2.76795020012001 -4.01560419741974
 1 -9.70217029652965 -1.52841966536654 -3.49226613331333
 1 -4.11127848524852 -3.79578440504050 -1.36359964686469
 1  2.72912404540454 -5.93563150615062  1.07406336323632
 1  2.39934067746775 -5.39105608170817 -0.43048649824982
 1  3.78019014131413 -3.88189747154716  2.03081808940894
 1  2.73722870957096 -3.42509813091309 -1.59978251925193
 1  3.88026263956396 -2.16142970227023 -1.74310678117812
 1  4.41567374137414 -3.51310503970397 -1.87091601750175
 1  4.77335737663766 -1.40253667766777  0.66702858635864
 1  5.25688421572157 -2.51034266666667  1.97619249954995
 1  6.79145667236724 -3.73474666676668  0.34477236123612
 1  6.49545970637064 -2.74677228622862 -0.99189978547855
 1  7.34522345364536 -0.73116644174417  0.65585283078308
 1  7.64114621752175 -1.79543612671267  1.94405879117912
 1  8.79204331363136 -1.63221149634964 -1.12115545364536
 1  8.92150666936694 -4.08621739313931 -0.51378517091709
 1  10.79629897069707 -3.21084528662866 -0.26032614611461
 1  9.58263732513251 -3.80112120362036  1.12000244294429
 1  9.47241639223923  0.21893761996200  0.44484984878488
 1  10.25940603810381 -1.18311484538454  1.58822836283628
 1  11.96673181448145 -1.85796582848285 -0.28729310251025
 1  11.35320140684068 -0.79029193409341 -1.30827216081608
 1  11.84939597309731  1.26941137033703  0.11092153695370
 1  12.64359918321832  0.16844803620362  1.23828210841084
 1  13.21837863856386  0.50065449774977 -1.73984622332233
 1  14.76549588788879 -0.93053126582658  0.61364704470447
 1  14.03244881588159 -1.68109712601260 -1.02195851735174
 1  15.42871385978598 -0.69082228042804 -1.10953784628463
 1  13.55085327952795  2.55160978007801 -0.21284307200720
 1  14.52423912421242  1.82820310951095  0.79135634953495
 1  16.48023967976798  1.35316392909291 -0.70367685838584
 1  15.53393897729773  1.94360827362736 -2.02934431413141
 1  15.36453785838584  4.36834221222122 -1.10622262036204
 1  16.48185095519552  3.67480412181218  0.47964786518652
 1  18.23575725712571  3.12348383958396 -1.19546862646265
 1  16.75267598799880  4.84715124402440 -3.38500085988599
 1  18.33173909740974  4.16435594889489 -3.36172077717772
 1  16.87644784498450  3.01773284328433 -3.30933896849685
 1  18.24352039923992  4.92979419691969  0.47783944814481
 1  18.92592011431143  5.39730388258826 -1.11743865826583
 1  17.32238378927893  5.83147265036504 -0.94495855715572
 1 -5.47242254365437 -7.91674110721072 -0.27961149884989
 1 -6.56236066636664 -6.93524061066107  1.17226073357336
 1 -4.85028319691969 -6.95876745234523  1.35726018261826
 8 -7.87364495609561  6.82871937273727 -0.33296108010801
 1 -8.60806910401040  6.36066171107111 -2.06252193499350

