%nproc=4
%Mem=4GB
# td=(NStates=1) iop(3/107=0140000000,3/108=0140000000) iop(3/107=0140000000,3/108=0140000000) CAM-B3LYP/6-31G(d,p) 

TD

0 1
12 -5.75626713331333  1.12725760006001  0.18838744394439
 6 -5.04157454465447 -2.16168463176318 -0.37147401420142
 6 -3.50340913001300  1.11364164896490  2.87824319761976
 6 -6.24646344204420  4.54875814001400  0.64515472427243
 6 -7.93533930103010  1.16629748044804 -2.37009468296830
 7 -4.44268852215222 -0.33762195399540  1.04641598039804
 6 -4.29432295979598 -1.62936663826383  0.67890023962396
 6 -3.08833195769577 -2.32926622942294  1.43084744844484
 6 -2.92558572957296 -1.33870676157616  2.57795435153515
 6 -3.61243867126713 -0.09875250295029  2.14540912611261
 6 -3.68433147254726 -1.83204664606461  3.86490919031903
 6 -1.88844403760376 -2.63767117641764  0.59350465596560
 6 -0.86248789228923 -3.46662424302430  1.38531211921192
 6  0.34771987248725 -3.81834567526753  0.59105730043004
 8  0.56826689098910 -3.27135444904490 -0.51102733693369
 8  1.15902274797480 -4.58763838113811  1.34430903820382
 7 -4.90791160746075  2.58476785368537  1.48030826252625
 6 -4.08354044384438  2.35652307400740  2.56068667196720
 6 -3.89176868056806  3.62448095029503  3.24818537473747
 6 -4.60190074277428  4.61207273557356  2.61062033333333
 6 -5.33619972417242  3.99899799499950  1.51022711501150
 6 -2.88275363846385  3.78764614041404  4.36027021642164
 6 -4.57610414101410  5.98511593209321  2.87834733953395
 8 -3.89025907390739  6.61307919591959  3.76379027892789
 7 -6.96780057995800  2.62430232603260 -0.71056271257126
 6 -6.99451216601660  3.89827944514451 -0.32816450515052
 6 -7.91883707010701  4.59481620642064 -1.16519062856286
 6 -8.44125357865786  3.70519744964496 -1.98403734813481
 6 -7.88257714821482  2.38806481528153 -1.72728867536754
 6 -8.28678166906691  6.06438634803480 -1.10209971877188
 6 -9.43141750505051  3.82179257745775 -3.27542217501750
 6 -8.73662511621162  4.15866401260126 -4.52378878287829
 7 -6.35479389838984 -0.17225224292429 -1.11306639863986
 6 -7.33315284488449 -0.05107117571757 -2.16554076477648
 6 -7.60902841004100 -1.33038474207421 -2.77666018861886
 6 -6.75629517831783 -2.20864043584358 -2.07878404410441
 6 -6.01499991539154 -1.39434299939994 -1.07560369076908
 6 -8.52359781758176 -1.59219934593459 -3.76818371457146
 6 -6.29629329642964 -3.59353493739374 -1.96375993109311
 8 -6.67183157865787 -4.66802450085008 -2.58651491659166
 6 -5.06204476657666 -3.61329938253825 -1.00029234903490
 6 -5.25920339773977 -4.63139858095810  0.09008268006801
 8 -5.63001877347735 -4.43717272537254  1.24694105750575
 8 -4.94184388258826 -5.83913510991099 -0.39332247684768
 6 -5.29644720892089 -7.05983783708371  0.41423325312531
 6  2.45906687988799 -4.95362648284828  0.64840879527953
 6  3.48060259525953 -3.97809797069707  1.02197009680968
 6  4.04962435263526 -3.17914078417842  0.11255489048905
 6  3.77439177807781 -3.06262120342034 -1.29109861436144
 6  5.15772219801980 -2.26972201980198  0.67873167196720
 6  6.49587445874587 -2.72328525372537  0.09136060346035
 6  7.59808513211321 -1.84635399089909  0.54280997149715
 6  9.07915873717372 -2.05678051165117 -0.06341412391239
 6  9.60746712841284 -3.39284992539254  0.20389693199320
 6  9.92416299539954 -0.83663390079008  0.39022153765377
 6  11.30229753215322 -0.78286789368937 -0.26412517871787
 6  12.20687837643764  0.32014664216422  0.28077492509251
 6  13.57881033683368  0.50485535543554 -0.52537730093009
 6  14.39673797279728 -0.71788119071907 -0.27974212511251
 6  14.27730366996700  1.85929210081008 -0.12996225102510
 6  15.59880407080708  2.09164719291929 -0.90697569256926
 6  16.19541212561256  3.35973072587259 -0.57287790099010
 6  17.45856110521052  3.76583442504250 -1.38561249644965
 6  17.07994058375838  3.76270116181618 -2.96358858305831
 6  17.87501690779078  5.14989025432543 -1.04804426332633
 1 -2.88136385918592  0.86330060546055  3.76652712111211
 1 -6.49755773457346  5.70529590999100  0.69709870157016
 1 -8.78109851705170  1.05383568646865 -2.95849132793279
 1 -3.77696876167617 -3.33310862626263  1.71881994279428
 1 -1.74057118101810 -1.20146780838084  2.84357563366337
 1 -3.24954473357336 -2.90949411061106  4.13324686868687
 1 -3.52053284598460 -1.04742464686469  4.68384041384138
 1 -4.87428994069407 -1.83947302820282  3.86815076557656
 1 -2.12026734043404 -3.02724224152415 -0.48303892769277
 1 -1.35884371677168 -1.79045816211621  0.54115223682368
 1 -0.66300173367337 -2.93919521512151  2.44220843954395
 1 -1.40091481308131 -4.48812594379438  1.61855365336534
 1 -1.98527864166417  3.63509303370337  3.98498440814081
 1 -2.84377536763676  4.80471767776778  4.88705496319632
 1 -2.88947194219422  3.00977197469747  5.03791879787979
 1 -5.36955001890189  6.66857105150515  2.30933625502550
 1 -10.06320545404540  2.93700435753575 -3.19090234193419
 1 -10.30651144904490  4.41800564466447 -2.96478676937694
 1 -9.70678047784778  4.46392480648065 -5.21212641494149
 1 -7.95927543694369  4.92700244564456 -4.24594454945495
 1 -8.23772362136214  3.33674303310331 -4.91625154995500
 1 -8.69447703730373 -0.67386792969297 -4.65573657195719
 1 -8.18319930293029 -2.53604700980098 -4.37697033403340
 1 -9.55763584308431 -1.51248807220722 -3.51594850155016
 1 -4.18078543594360 -3.71265609220922 -1.73971725862586
 1  2.66936806980698 -6.07454539753975  0.81210716761676
 1  2.18428917231723 -4.87887486358636 -0.37742119171917
 1  3.81535365766577 -3.95686496829683  2.06161116871687
 1  2.81410639733973 -3.23529915101510 -1.52035457645765
 1  4.04141875517552 -2.08903246254626 -1.51029349984999
 1  4.53281545554555 -3.71025475467547 -1.82560148604861
 1  5.05006504740474 -1.19743616761676  0.58401028452845
 1  5.22528105540554 -2.22438407080708  1.78723360366037
 1  6.90002752945295 -3.66429962206221  0.41294917891789
 1  6.57875803620362 -2.62661027002700 -1.00687128262826
 1  7.36419535083508 -0.64132745784579  0.54516176167617
 1  7.87732983588359 -1.94337092019202  1.65454984028403
 1  8.77925203450345 -2.15774404960496 -1.17752109020902
 1  9.03910842954295 -4.39023779517952  0.06172237983798
 1  10.64840418121812 -3.31605580768077 -0.24909502300230
 1  9.91722078347835 -3.49721081258126  1.24435487818782
 1  9.47026617721772  0.20693641984198  0.31068643244324
 1  10.14764486198620 -0.94058059195920  1.54040358035804
 1  11.80094523582358 -1.76664669656966 -0.20889526272627
 1  11.09763585028503 -0.59667257215722 -1.31348268186819
 1  11.82046307980798  1.24516894609461  0.23345379017902
 1  12.38582340564056  0.05677686908691  1.43641192139214
 1  13.35230203090309  0.54443887618762 -1.58978121682168
 1  14.60919025732573 -0.92294050675067  0.86937261726173
 1  14.04871044204420 -1.74740375667567 -0.63334965646565
 1  15.32821380978098 -0.78651184938494 -0.71839873237324
 1  13.55355354955496  2.64103872297230 -0.21668345604560
 1  14.56145284558456  1.76046633583358  0.95767298119812
 1  16.38174983078308  1.41407001970197 -0.92291878257826
 1  14.98420400380038  1.94850876367637 -1.94292567226723
 1  15.58502990759076  4.27117249524952 -0.82150414851485
 1  16.36606937703771  3.45537217861786  0.39854975537554
 1  18.28259194059406  3.03228471967197 -1.22193127272727
 1  16.04474519491949  4.51214774367437 -3.03533589338934
 1  17.88391431493149  4.28832834613461 -3.50095470057006
 1  16.88205840604061  2.79683075307531 -3.43426146074607
 1  18.09015506270627  5.13200441794180  0.02656432063206
 1  19.01870939323933  5.20851500370037 -1.40651756615662
 1  17.18224977587759  5.89486898999900 -1.25625968726873
 1 -4.89787508890889 -7.76927636073607 -0.31579511721172
 1 -6.27464189448945 -7.13740082668267  0.75881938943894
 1 -4.59966813541354 -7.24649622522252  1.30749520612061
 8 -7.86838443004300  6.94248074887489 -0.33757154115412
 1 -9.00987928502850  6.30874651955195 -1.94096977977798

