%nproc=4
%Mem=2GB
# td=(NStates=1) iop(3/107=0140000000,3/108=0140000000) iop(3/107=0140000000,3/108=0140000000) CAM-B3LYP/6-31G(d,p) 

TD

0 1
12 -6.66004857695770  0.51175031913191  0.14430204970497
 6 -4.44552165866587 -2.17855627742774  0.36973725072507
 6 -4.18299011441144  2.67191882498250  0.92069495109511
 6 -8.92375508020802  3.24242826692669 -0.15236473817382
 6 -9.20980907850785 -1.59634266386639 -0.72358241694169
 7 -4.59883495539554  0.30512991069107  0.57283631573157
 6 -3.98882614821482 -0.86726643344334  0.68825938133813
 6 -2.49453287188719 -0.65970772997300  1.02913497579758
 6 -2.45871583738374  0.83978412721272  1.20142230473047
 6 -3.91123738663866  1.32974305950595  0.79585436013601
 6 -1.77840412611261  1.25396719261926  2.63745830863086
 6 -1.55992474087409 -1.14614717811781 -0.07723639733973
 6 -0.03843196149615 -1.22096380298030  0.48468754225423
 6  0.87936901610161 -1.46006324322432 -0.78738691249125
 8  0.80808087618762 -0.62306491899190 -1.71861285148515
 8  1.76435672227223 -2.38589888848885 -0.56329125162516
 7 -6.49119086128613  2.53893426342634  0.27558130603060
 6 -5.42013257415742  3.22770141334133  0.58378467466747
 6 -5.52885710091009  4.80601028582858  0.55688055665567
 6 -6.98642935633563  4.87710380088009  0.24098068136814
 6 -7.54450615451545  3.48079688808881 -0.08689385798580
 6 -4.67212213251325  5.80246767726773  0.93638130613061
 6 -7.72624418571857  6.10842776287629  0.07618714241424
 8 -7.27716163236324  7.12794441104110  0.08859671647165
 7 -8.68988254175417  0.79762062126213 -0.25917856695670
 6 -9.54794846724672  1.99685442074207 -0.35801685398540
 6 -10.94404103440344  1.63622349344934 -0.58239402060206
 6 -11.03273763126313  0.18157906230623 -0.73957481298130
 6 -9.58209987328733 -0.25730389358936 -0.56706878357836
 6 -11.95543231853185  2.49627582068207 -0.54902955375538
 6 -12.21211433193319 -0.52753631593159 -1.20803893759376
 6 -12.14660152225223 -0.78762092729273 -2.65321811651165
 7 -6.84281076397640 -1.51507406870687 -0.09600224472447
 6 -7.96384904650465 -2.27896789348935 -0.50000319831983
 6 -7.63442102720272 -3.65240256265627 -0.54970598069807
 6 -6.24915053625362 -3.63160232113211 -0.26431469206921
 6 -5.83217950665066 -2.26371518601860 -0.09007282298230
 6 -8.78830735423542 -4.74194157195720 -0.75030784668467
 6 -5.25965216971697 -4.54230002810281  0.12732075777578
 8 -5.16599834853485 -5.73264380268027  0.09312981958196
 6 -4.08391211661166 -3.40758131733173  0.65662030923092
 6 -3.52403591449145 -3.83923009850985  1.97172688568857
 8 -4.29005424552455 -3.98724545934594  2.94983365316532
 8 -2.27140881578158 -3.73579988528853  1.90054999419942
 6 -1.65719424152415 -4.08935402550255  3.22660708590859
 6  2.99372126492649 -2.48648382528253 -1.51706295039504
 6  4.02435620302030 -1.27015401650165 -1.14607013931393
 6  5.07010776617662 -1.07219409080908 -1.91558776037604
 6  5.31453543734373 -1.71269440414041 -3.27481446364636
 6  5.99455327992799  0.04776712381238 -1.63437999649965
 6  7.44334302830283 -0.58683446554655 -1.15295203250325
 6  8.33530609090909  0.41892752735274 -0.55298377887789
 6  9.85795888528853 -0.31644856515652 -0.04251255695570
 6  9.49201671797180 -0.98338715341534  1.43348771757176
 6  10.76651898189819  0.91030588478848  0.01877671607161
 6  12.12000727122712  0.33900520772077 -0.11765345414541
 6  13.27122866546655  1.28226550125013  0.31294419281928
 6  14.96256259145915  0.42613589168917  0.57413207530753
 6  14.79991497959796 -0.17965024552455  2.13790371437144
 6  15.96962659105911  1.55337023902390  0.04733793909391
 6  17.32851232933293  0.82900812521252  0.16691981808181
 6  18.49811935933593  1.73620081128113 -0.29055920272027
 6  19.86973917501750  1.15567406220622 -0.25442552625262
 6  20.10398019931993  0.30510594089409 -1.50797658885889
 6  20.97056422532253  2.41981339933993 -0.22849794569457
 1 -3.24612525082508  3.44745599659966  0.96951635333533
 1 -9.82376635913591  4.08217730283028 -0.19020265416542
 1 -10.04145663726373 -2.39791019031903 -0.91854468036804
 1 -2.13653617041704 -0.94280189798980  2.01262131043104
 1 -1.61688102670267  1.40687116331633  0.54638109150915
 1 -1.11817320102010  0.74818313271327  2.87678838993899
 1 -1.45439361326133  2.35512408880888  2.83779989778978
 1 -2.66984931743174  1.33943182848285  3.68299416851685
 1 -1.89754877517752 -1.96889816281628 -0.89990777757776
 1 -1.44903007200720 -0.63357483038304 -0.89199899069907
 1  0.26727472577258 -0.26961839513951  1.13349921512151
 1  0.10855713591359 -2.01136747054705  1.27801803390339
 1 -3.79257378777878  5.80298812671267  0.41448640634063
 1 -4.49484976557656  6.84839751565157  0.70463736983698
 1 -4.35582661086109  5.93668262926293  2.25756352865287
 1 -8.73922693679368  6.01537664686469 -0.23074945074507
 1 -12.39895944954495 -1.70040090759076 -0.84724915211521
 1 -13.19067528252825  0.16671307110711 -0.98108574497450
 1 -13.20300812391239 -0.67789990539054 -3.21926904400440
 1 -11.72765972977298  0.11176859835984 -3.21150331983198
 1 -11.69657648204820 -1.67097041404140 -3.17041364876488
 1 -8.77248643194319 -4.54311086668667 -1.91906413441344
 1 -8.56166138073807 -5.93546355895590 -0.40074972687269
 1 -9.79279655965597 -4.53365532673267 -0.09885527602760
 1 -3.24946452785279 -3.97007073197320  0.03156484968497
 1  3.49253086848685 -3.46437371117112 -1.19964568166817
 1  2.56774106290629 -2.25091100610061 -2.45652588788879
 1  3.57340466816682 -0.90083283168317 -0.19406580498050
 1  4.40748380538054 -1.05506897939794 -3.76634674967497
 1  6.56407998639864 -1.85280395579558 -3.68272949684968
 1  5.20447427482748 -2.94331694599460 -3.20878506230623
 1  6.07474789668967  0.68930426782678 -2.32855547274727
 1  5.60244535393539  0.93657920572057 -0.97063132653265
 1  7.25971715061506 -1.37073527062706 -0.12533081148115
 1  7.88275367376738 -1.39322811311131 -2.06223569946995
 1  8.50721285268527  1.06001659645965 -1.52361514681468
 1  7.97885638373837  1.38201338953895  0.19950565896590
 1  10.18722116921692 -1.13663110681068 -0.79315647324732
 1  8.85556780108011 -1.95294411011101  1.76305466626663
 1  10.52084815421542 -1.05841972317232  1.84215610701070
 1  9.23764697629763 -0.23238446084608  2.17269857495750
 1  10.85868950675068  1.54217697759776 -0.77149432103210
 1  10.69798954555456  1.82239111471147  0.96480036033603
 1  12.24018156035604 -0.52261470097010  0.77979166246625
 1  12.16110826482648 -0.64342256285629 -1.02259525702570
 1  13.43582845284528  2.07044658965897 -0.70251915651565
 1  13.00073211801180  1.66202045334533  1.13548933833383
 1  15.44668609440944 -0.12196971297130 -0.13583177437744
 1  14.67221712161216  0.63724411991199  3.07284005700570
 1  14.31691896539654 -0.97617528942894  1.90824832293229
 1  15.90725775887589 -0.68959254235423  2.38982546024602
 1  15.73175431033103  2.00008000140014 -1.20971094579458
 1  16.03171720432043  2.76400593609361  0.69738806200620
 1  17.82538385348535  0.48119128972897  0.80678086478648
 1  17.02617014121412  0.25134330353035 -0.39653103050305
 1  17.97594260136014  2.24392093989399 -1.46190917921792
 1  18.68907890399040  2.50590449734973  0.44110078057806
 1  20.05088764996500  0.42155500170017  0.57410076087609
 1  20.09258757675768  1.01487653725373 -2.59026115131513
 1  21.16030032003200 -0.28477027882788 -1.78066219961996
 1  19.31472419941994 -0.41594931333133 -1.75313338803880
 1  20.84176095469547  3.01365094419442  0.71565231883188
 1  22.10253799409941  1.76834341704170 -0.04431714671467
 1  20.82150880378038  2.72084957215721 -1.17591238753875
 1 -0.87543316841684 -4.33475622502250  2.89194754275428
 1 -2.32450213121312 -4.92741001470147  3.67963860046005
 1 -1.80745475877588 -3.37452592969297  4.14849900310031
 8 -11.87870624492449  3.75316011521152 -0.65979779347935
 1 -13.05407591909191  2.15156639673967 -0.78262886788679

