%nproc=4
%Mem=4GB
# td=(NStates=1) iop(3/107=0140000000,3/108=0140000000) iop(3/107=0140000000,3/108=0140000000) CAM-B3LYP/6-31G(d,p) 

TD

0 1
12 -5.68872037863786  1.12264713901390  0.25337394259426
 6 -5.07928831603160 -2.16043450675068 -0.39458632543254
 6 -3.42349113821382  1.12307259205921  2.86070144344434
 6 -6.10014881058106  4.58315157935794  0.62027223602360
 6 -7.98080384748475  1.15675652635263 -2.37319499299930
 7 -4.35127938123812 -0.28278647044704  1.09691102990299
 6 -4.27177070457046 -1.62845654725473  0.68900124972497
 6 -3.26721984648465 -2.31371467426743  1.52873723742374
 6 -2.92102527352735 -1.33454634553455  2.72078863496350
 6 -3.57529495689569 -0.06246887458746  2.13930851605161
 6 -3.63068610801080 -1.74680812221222  4.07452015141514
 6 -1.96889208240824 -2.60947835713571  0.64192949844984
 6 -0.99829147264726 -3.52286986758676  1.30203379137914
 6  0.19418451895190 -3.82680652135213  0.47434562926293
 8  0.55277534183418 -3.33373068666867 -0.63563979817982
 8  1.04545139083908 -4.75345496279628  1.18073268056806
 7 -4.95067588388839  2.63997337423742  1.57701793349335
 6 -4.03348543834383  2.43082050375037  2.50993159645965
 6 -3.84029353305331  3.73970247244724  3.29360991719172
 6 -4.62931348404841  4.64687621592159  2.67092636393639
 6 -5.37141324552455  3.95550364556456  1.56949304160416
 6 -2.84879024212421  3.77797517331733  4.40910509990999
 6 -4.76908343894389  6.02222964346435  2.95978548334833
 8 -4.09336938493849  6.56700458845885  3.82658655855586
 7 -6.80716451635164  2.69109900570057 -0.71113276957696
 6 -7.01172388718872  3.95810542774277 -0.37559924862486
 6 -7.93763895029503  4.58790551535153 -1.23200731023102
 6 -8.48064751805181  3.57418434833483 -1.99045799019902
 6 -7.70515940644064  2.41702771157116 -1.77324327082708
 6 -8.48985197609761  5.97660757015702 -1.11522103090309
 6 -9.48685304860486  3.65306570477048 -3.12406703950395
 6 -8.94192564626463  4.05014316051605 -4.59850625462546
 7 -6.34519293829383 -0.09259427712771 -1.20358545054505
 6 -7.26609613921392 -0.03390945954595 -2.12145635633563
 6 -7.59709721692169 -1.38115981958196 -2.77098962156216
 6 -6.83832338113811 -2.23588316011601 -2.08391455715572
 6 -6.01251966736674 -1.45760932603260 -1.04334046444644
 6 -8.45774123192319 -1.50050017601760 -4.04169106530653
 6 -6.18892255935594 -3.58392397629763 -2.01748530363036
 8 -6.37259165466547 -4.50409810821082 -2.86289255435544
 6 -5.09971853395340 -3.52817086968697 -0.86457877767777
 6 -5.38036551395139 -4.58640408150815  0.19021269306931
 8 -5.92519829142914 -4.38428743684368  1.30483684708471
 8 -5.00592029022902 -5.86664786118612 -0.19051219581958
 6 -5.32607017121712 -6.98043989728973  0.56185801560156
 6  2.39093006620662 -5.13791491169117  0.54849880428043
 6  3.43753828882888 -4.09703986488649  0.94562246204620
 6  4.05973536373637 -3.18741161126113  0.27100073507351
 6  3.76890122902290 -3.11106604790479 -1.24503400790079
 6  5.21531795759576 -2.44584963256326  0.85323912271227
 6  6.55713058435844 -2.63311623682368  0.02986445384538
 6  7.66251157475748 -1.81482083758376  0.66886257675768
 6  9.03646446774678 -1.92790762436244 -0.06228401090109
 6  9.56360274197420 -3.38941958235824  0.10484702700270
 6  10.03887446654665 -0.87013725112511  0.41893440894089
 6  11.30848815121512 -0.77134674157416 -0.42640140634063
 6  12.29401709030903  0.30706533403340  0.16051289888989
 6  13.70156261206121  0.46281115101510 -0.59077384058406
 6  14.57246554555456 -0.72008141074107 -0.29855400630063
 6  14.37262320192019  1.75102127372737 -0.17915717051705
 6  15.52999719011901  2.11529955815582 -1.00893588858886
 6  16.12351493589359  3.46981173397340 -0.66062667586759
 6  17.41366661576158  3.75228306990699 -1.35429936513651
 6  17.34819740944094  4.01161605330533 -2.92377460166017
 6  18.02156156225622  5.04733999929993 -0.86935639453945
 1 -2.77064278707871  1.24986926232623  3.70473094149415
 1 -6.32985096389639  5.56264164456446  0.87692668436844
 1 -8.93054346154615  1.07891819471947 -3.11444692349235
 1 -3.71981304610461 -3.17456277167717  1.72456051685169
 1 -1.90989811371137 -1.24117177877788  2.91483275937594
 1 -3.12287206630663 -2.74231739293929  4.35049859385939
 1 -3.33120391309131 -1.10046995139514  4.73689571937194
 1 -4.56578909060906 -1.80816989788979  4.14256820732073
 1 -2.20503581728173 -3.07547706500650 -0.19269989378938
 1 -1.66034386678668 -1.57629674597460  0.27233535513551
 1 -0.59567500100010 -3.17020831643164  2.26431064976498
 1 -1.62633735533553 -4.54542167336734  1.36588838683868
 1 -1.91403151695170  3.14783430783078  4.17633354305431
 1 -2.75351634173417  4.78314552055205  4.75275153285329
 1 -3.26995999099910  3.35911690919092  5.35845085108511
 1 -5.73443650755076  6.62431662606261  2.32028735013501
 1 -10.16972610611061  2.79588024512451 -3.21627487918792
 1 -10.24224502240224  4.35900974507451 -2.69028931963196
 1 -9.89843964376438  3.70162857685769 -5.33250845314531
 1 -8.19601911131113  4.87323706910691 -4.68803875887589
 1 -8.23417326632663  3.31325068386839 -4.94430435523552
 1 -8.44624221382138 -0.54349489238924 -4.69767076537654
 1 -8.22879386238624 -2.38396180128013 -4.67001963896390
 1 -9.40286036553655 -1.77405422882288 -3.62597950465046
 1 -4.34514187158716 -3.93548837543754 -1.60843413031303
 1  2.43893502650265 -6.11742968596860  0.84624058095810
 1  2.22460320372037 -5.25162213831383 -0.59949339893989
 1  3.65601772407241 -4.13021230303030  2.00492550015002
 1  2.75366035273527 -3.30434605570557 -1.57802034303430
 1  4.00396500980098 -2.16684024332433 -1.46761923242324
 1  4.45790796479648 -3.74469819901990 -1.75883480938094
 1  4.85889593049305 -1.23333975797580  0.80660254375438
 1  5.27562608990899 -2.62373400580058  1.87797267756776
 1  6.82865039173917 -3.65181837393739  0.14421230523052
 1  6.73341350175017 -2.33350095909591 -1.03274386988699
 1  7.18319725102510 -0.85865919101910  0.71701894739474
 1  7.96605870877088 -2.20300688378838  1.82196658195820
 1  8.72361647094709 -1.58650692589259 -1.13355669376938
 1  8.99997451615161 -4.28036680808081 -0.52569636203620
 1  10.60191953275328 -3.42822702480248 -0.39958007150715
 1  9.57628669006901 -3.73553464496450  1.21732217491749
 1  9.75779493009301  0.23009873607361  0.50271563536354
 1  9.99627972547255 -1.13673020692069  1.63419295929593
 1  12.04915005630563 -1.70943097499750 -0.50075444864486
 1  11.05383146984699 -0.65705861076108 -1.52144347794780
 1  11.85591662516252  1.28229265846585  0.00205064986499
 1  12.51118594189419  0.19854104550455  1.05549382958296
 1  13.34150095079508  0.46136056835684 -1.68801103980398
 1  15.19551889018902 -0.70354856755676  0.66134181418142
 1  14.00020559155915 -1.71822083838384 -0.46171249274928
 1  15.38942993139314 -0.71231442964296 -1.06730362286229
 1  13.70733892809281  2.57007162626263 -0.16845863356336
 1  14.69499619991999  1.73182347154715  0.99006622052205
 1  16.25619727552755  1.43302191489149 -0.80648713941394
 1  15.48105368876888  2.24256816961696 -2.06378775847585
 1  15.33810521512151  4.18948432643264 -0.62525452355236
 1  16.41942471257126  3.54252089348935  0.35535543594359
 1  18.06630031143114  2.83119461066107 -1.03676275587559
 1  16.66722744314431  4.75399192809281 -3.21098345814581
 1  18.33024894839484  4.47275678897890 -3.27180178527853
 1  16.95580578077808  3.10321139113911 -3.38979701430143
 1  18.26670271747174  4.93820503800380  0.23830549474948
 1  18.87474499679968  5.28955310751075 -1.35322223662366
 1  17.41578312921292  5.94379388248825 -1.06021008230823
 1 -4.97618291969197 -7.85271470457046 -0.00590412811281
 1 -6.39672410271027 -7.18429551615162  0.74421792929293
 1 -4.95572374097410 -6.99917149274928  1.62747720432043
 8 -7.81049864146415  6.91365786658666 -0.57283506750675
 1 -9.47847614471447  6.18323396829683 -1.76399208200820

