%nproc=4
%Mem=2GB
# td=(NStates=1) iop(3/107=0140000000,3/108=0140000000) iop(3/107=0140000000,3/108=0140000000) CAM-B3LYP/6-31G(d,p) 

TD

0 1
12 -6.65735830793079  0.66563570767077  0.12166978647865
 6 -4.42152925942594 -2.10552897469747  0.43920419741974
 6 -4.01863367876788  2.79069070217022  0.83248613021302
 6 -8.80492319701970  3.29068309240924 -0.37155665736574
 6 -9.26261435903590 -1.76447947754775 -0.62004206290629
 7 -4.63656872877288  0.39897929562956  0.47000603270327
 6 -3.81521878747875 -0.84991469826983  0.53470402580258
 6 -2.43626704530453 -0.65990774997500  0.94208627092709
 6 -2.30444040984098  0.93112326112611  1.33308547104710
 6 -3.80828709160916  1.43756384158416  0.85526030073007
 6 -2.04661094679468  1.25221701760176  2.77932249504950
 6 -1.43161190959096 -1.16213877727773 -0.11475014871487
 6 -0.09406752505251 -1.51250295689569  0.50255932943294
 6  0.88427950715071 -1.58468570547055 -0.70348852265227
 8  0.92990305840584 -1.16557917041704 -1.78984997519752
 8  1.89646993359336 -2.44492479107911 -0.30213513601360
 7 -6.55939768196820  2.74895526552655  0.23821756965697
 6 -5.37430799169917  3.35145378857886  0.50573686988699
 6 -5.51777599279928  4.75431511631163  0.64400926952695
 6 -7.01418213161316  4.84733082358236  0.22506909020902
 6 -7.56379808370837  3.61761056945695  0.02416724812481
 6 -4.67232215251525  5.85128255875588  1.08074574257426
 6 -7.75049661096110  6.21585850595060  0.20089961366137
 8 -7.14506842304230  7.17572918951895  0.62290014681468
 7 -8.77707126062606  0.73115397459746 -0.32162481158116
 6 -9.38335200760076  1.92418715401540 -0.39380043234323
 6 -10.81042767306731  1.63857372847285 -0.81591737293729
 6 -10.93663802130213  0.26208711311131 -0.90909176467647
 6 -9.64516617991799 -0.25826398959896 -0.56027810451045
 6 -11.66694346964696  2.68642483558356 -1.21093574437444
 6 -12.34713783428343 -0.43035659795980 -1.20296843054305
 6 -12.68209507160716 -0.40883304850485 -2.63140593529353
 7 -6.92001848474847 -1.39111167246725 -0.02091473597360
 6 -7.98332099369937 -2.14815481218122 -0.40126332433243
 6 -7.53930151525153 -3.57738506090609 -0.29392040214021
 6 -6.28018363956396 -3.59057821872187 -0.00425868646865
 6 -5.86910319901990 -2.15202401690169  0.12946913121312
 6 -8.22861138463846 -4.70261763956396 -0.64301711761176
 6 -5.11558776327633 -4.43816961506151  0.24414243994399
 8 -5.04002575127513 -5.75445598389839  0.23466397299730
 6 -3.95137886328633 -3.46477703690369  0.50257490469047
 6 -3.40825433633363 -3.84283045854585  1.86585629862986
 8 -3.90607584768477 -4.02696943174317  2.88554722452245
 8 -2.02211388628863 -3.77279358465847  1.70198013721372
 6 -1.28282680478048 -4.15131022112211  2.84263868906891
 6  3.04204609740974 -2.49632480938094 -1.30336158025803
 6  4.03894766216622 -1.56839384048405 -1.06859239153915
 6  4.92810356575658 -1.14556142754275 -1.99233543514351
 6  5.06240022382238 -1.90050318501850 -3.34903188538854
 6  5.97968179277928 -0.10802845574557 -1.55406196469647
 6  7.24831352535254 -0.78526430853085 -1.11330806810681
 6  8.35362792309231  0.21546718131813 -0.57274575507551
 6  9.61774486388639 -0.40211713201320 -0.13965227092709
 6  9.42689020532053 -1.14430324502450  1.09028339713971
 6  10.75561789178918  0.60910576477648 -0.10181534313431
 6  12.13620889138914 -0.03451214401440  0.19632794399440
 6  13.26818836143614  0.93433070777078  0.65685858425843
 6  14.69933626882688  0.49744302240224  0.72653731583158
 6  14.88622361046105 -0.08714099459946  2.06796672067207
 6  15.77927755615562  1.51773667566757  0.40605381068107
 6  17.16456593469347  0.91952717711771  0.27323044914491
 6  18.29988953635364  2.05434262546255  0.00362021522152
 6  19.58791099219922  1.43069156395640 -0.42586266996700
 6  19.48890869216922  0.58596402670267 -1.78451424262426
 6  20.49494666356636  2.67358877687769 -0.69207430333033
 1 -3.30507114541454  3.50087133813381  1.42166156785678
 1 -9.77862184468447  4.08275736083608 -0.53920755465547
 1 -10.39215170677068 -2.34512491179118 -0.98997182308231
 1 -2.67284980178018 -0.99371698949895  1.81514156245625
 1 -1.65730506910691  1.57013748994900  0.77956440984098
 1 -0.67810919461946  0.95230354475448  2.82014272537254
 1 -2.45070324422442  2.40212878927893  3.20236635443544
 1 -2.65935826832683  0.35131301660166  3.36618248734873
 1 -1.77085610591059 -2.20671194419442 -0.70131791859186
 1 -1.66336150515052 -0.13260473337334 -1.01102089288929
 1  0.49584758305831 -0.46265769906991  1.04311017621762
 1 -0.12871659145914 -2.28348468226823  1.08402863496350
 1 -3.72513704410441  6.04561238913891  0.56594155185518
 1 -5.15318559915992  6.69918259415942  1.23876078217822
 1 -4.33358438663866  5.40961992299230  2.01551932423242
 1 -8.75767878197820  6.14125923512351 -0.11730810661066
 1 -12.08138769236924 -1.46523739123912 -1.04627905510551
 1 -13.41423763876388 -0.07300090029003 -0.67741537793779
 1 -13.27922574567457 -1.62545466086609 -2.82341945904590
 1 -12.94975193899390  0.59711713321332 -2.79596176567657
 1 -11.64175099949995 -0.76888020502050 -3.38014462186219
 1 -8.56705588888889 -4.71151770737074 -1.59037126512651
 1 -8.29215443004300 -5.79360937353735 -0.51647129902990
 1 -9.08750603060306 -4.81824378557856 -0.26336172667267
 1 -2.94947452885288 -4.00977470237024 -0.14424273107311
 1  3.51161277667767 -3.63686095989599 -1.05899161626163
 1  2.67733202200220 -2.70725664066407 -2.32401263656366
 1  4.03034036173617 -1.20456320472047 -0.05504190259026
 1  4.17311036803680 -2.13104657715771 -3.88717883288329
 1  5.77628120652065 -1.36790546594659 -3.96476770067007
 1  5.31395522292229 -3.01457407170717 -2.93492767656766
 1  6.39443986588659  0.52090742814281 -2.25677829502950
 1  5.70152526192619  0.68160370817082 -0.76077034043404
 1  6.93665484438444 -1.46453465056506 -0.18805708410841
 1  7.59124452285229 -1.32829161946195 -2.10582005790579
 1  8.71541367276728  0.78779937473747 -1.43065585088509
 1  8.04344284238424  0.65748093629363  0.08103381178118
 1  9.80562300940094 -1.32401984568457 -0.99711686928693
 1  8.47043928822882 -1.50747956365637  1.20778913971397
 1  10.35134120352035 -1.86799068026803  1.47196908830883
 1  9.40917412901290 -0.28342956535654  1.88191949704971
 1  10.66083972177218  1.17245000490049 -0.99264643624363
 1  10.54490423702370  1.36645552115212  0.54556843714371
 1  11.96715425762576 -0.41794423392339  1.02464614791479
 1  12.37251940594059 -0.61222944354435 -0.31992498999900
 1  13.20833570357036  1.85179472447245 -0.06184508910891
 1  12.72534457925792  1.45779003030303  1.44187997739774
 1  14.91621304710471 -0.44655217121712  0.18998080688069
 1  14.19315921582158  0.46895729122912  2.88499127212721
 1  14.18660593409341 -0.78908658055806  2.19483698179818
 1  15.80725775887589 -0.23171675477548  2.28194467216722
 1  15.70775191009101  2.28840883428343 -0.25326530123012
 1  15.88731276387639  2.41106064156416  1.29992831603160
 1  17.47056837193719  0.44373754435444  1.29718990569057
 1  17.02943046724672 -0.05102693349335 -0.34368574597460
 1  17.86732173927393  2.56183273107311 -0.90121310961096
 1  18.34415441154115  2.81324523142314  0.92794946544655
 1  19.91776433763377  0.79616246244625  0.55180853165317
 1  19.08862718071807  1.05799084868487 -2.87608973417342
 1  20.31145543554355 -0.33908571037104 -2.26142027542754
 1  18.80416314331433 -0.35655337373737 -1.58014608930893
 1  20.28712549114911  3.41436101520152  0.32491324492449
 1  21.53285102540254  2.25063164586459 -0.92841555655565
 1  20.29034568746874  3.32760024722472 -1.55586038233823
 1 -0.47722334743474 -4.50525327472747  2.47875622362236
 1 -1.97930761176118 -4.68936621032103  3.66172680928093
 1 -1.00754476777678 -3.48621709880988  3.62712686588659
 8 -11.50677905220522  3.85208000720072 -1.06452826652665
 1 -12.67080759225923  2.44344558465847 -1.41201180618062

