%nproc=4
%Mem=4GB
# td=(NStates=1) iop(3/107=0140000000,3/108=0140000000) iop(3/107=0140000000,3/108=0140000000) CAM-B3LYP/6-31G(d,p) 

TD

0 1
12 -5.67501900850085  1.27482235653565  0.26865547074707
 6 -5.00139052625263 -2.20982944624462 -0.48952581938194
 6 -3.35655444454445  1.09235952075208  2.78444381768177
 6 -6.12388118381838  4.54917818201820  0.57775798459846
 6 -7.92297806490649  1.21668251895190 -2.43312098559856
 7 -4.24440869416942 -0.33597178897890  0.96219755855586
 6 -4.22773630113011 -1.64600830243024  0.52577492709271
 6 -3.16433955845585 -2.29175247804780  1.40128449214921
 6 -2.86970014101410 -1.32342523342334  2.54743129922992
 6 -3.57265469286929 -0.07250987868787  2.08771335653565
 6 -3.33863690309031 -1.80457389878988  3.99903260266027
 6 -1.94874006720672 -2.93049045834583  0.64724002950295
 6 -1.00112175567557 -3.83871145174517  1.52919650765077
 6  0.18093319381938 -4.04656849754975  0.72173036773677
 8  0.45832589688969 -3.57875518911891 -0.38478471267127
 8  1.05033187888789 -4.87114673197320  1.41661626892689
 7 -4.79910072637264  2.61482085898590  1.45816604830483
 6 -3.95719780958096  2.39530695239524  2.48854945824582
 6 -3.74587409110911  3.61910041224122  3.19482003820382
 6 -4.45989654235424  4.62301382968297  2.56326559785979
 6 -5.21443754795479  3.95076317151715  1.52407850015002
 6 -2.71783714681468  3.68600597639764  4.42728691809181
 6 -4.58887541814181  6.00622804330433  2.86870637543754
 8 -3.88517856585659  6.57648553655365  3.81230513041304
 7 -6.84348814871487  2.64081397719772 -0.69695135143514
 6 -6.93363607840784  3.93744336153615 -0.41741343004300
 6 -7.85593077947795  4.65430215501550 -1.21168527802780
 6 -8.40321977527753  3.65705263516352 -2.06061500590059
 6 -7.71509039953995  2.43791980078008 -1.65592153865387
 6 -8.21877486838684  6.03659356875688 -1.15705521432143
 6 -9.41489585288529  3.89310970917092 -3.20502513531353
 6 -8.78575002870287  4.00949909610961 -4.59139554355436
 7 -6.36499491849185 -0.11965698339834 -1.06815190719072
 6 -7.29577910751075 -0.01181725032503 -2.05666987768777
 6 -7.54778228542854 -1.26936864046405 -2.61605412801280
 6 -6.70579012781278 -2.06204577637764 -2.01127729342934
 6 -6.01017943334333 -1.37932149724972 -1.09272540294029
 6 -8.35186064386439 -1.73612373837384 -3.93431032723272
 6 -6.16159982708271 -3.49968555245525 -2.06677023212321
 8 -6.57472186768677 -4.39801750015002 -2.72172843794379
 6 -5.11280984308431 -3.59695774837484 -0.93007532733273
 6 -5.42511998939894 -4.64100954205421  0.16005967776778
 8 -5.97497326892689 -4.36674568266827  1.24746110951095
 8 -5.12997269546955 -5.85094629102910 -0.27467061166117
 6 -5.49273683788379 -6.90923277657766  0.61940377017702
 6  2.31663263646365 -5.15419653985399  0.61871582598260
 6  3.42247678267827 -4.26505666656666  1.05100300010001
 6  3.94440383058306 -3.32348521862186  0.21765540054005
 6  3.54440877977798 -3.19041398269827 -1.23623312781278
 6  5.13735016081608 -2.48833388098810  0.66131993079308
 6  6.45294016531653 -2.69122204740474 -0.01029956255626
 6  7.48185350895090 -1.76336569206921  0.50938662916292
 6  8.96458728002800 -1.83674850845085 -0.08857664016402
 6  9.48837521922192 -3.43508414881488  0.02515905820582
 6  9.91716229532953 -0.77543778117812  0.35394791029103
 6  11.21529883228323 -0.71735134203420 -0.38821758795880
 6  12.17049473807381  0.45543017051705  0.13980082768277
 6  13.52516497229723  0.59456432633263 -0.53477824102410
 6  14.41070936993699 -0.54287368996900 -0.24572872377238
 6  14.12276821642164  1.95453162476248 -0.21020027482748
 6  15.36772096249625  2.25185321352135 -1.00539553455346
 6  16.13018560296030  3.50559531233123 -0.64706531973197
 6  17.38148339743974  3.89951779337934 -1.30153408860886
 6  17.30130271997200  4.03539843154315 -2.87274949914991
 6  18.01092049814982  5.19435470077008 -0.77536699559956
 1 -2.61483720652065  1.18437271267127  3.55671614001400
 1 -6.28841682048205  5.65146052645265  0.78953794549455
 1 -8.70446085328533  1.27207751065106 -3.22969844864486
 1 -3.77503856865687 -2.98293360876088  1.98450651145115
 1 -1.76760388428843 -1.21702936453645  2.43656493259326
 1 -2.76645642474247 -2.81316447764776  4.26674021802180
 1 -3.00364115681568 -1.13709361376138  4.74778680848085
 1 -4.37580009170917 -2.08933801470147  3.81036498699870
 1 -2.45402071577158 -3.49497901520152 -0.23667429122912
 1 -1.42237006940694 -2.11388050435043  0.36860498209821
 1 -0.86466189968997 -3.14285558115812  2.33819803850385
 1 -1.31293601520152 -4.90387751895190  1.95151694969497
 1 -1.63024313811381  3.43050257465747  4.01560747044704
 1 -2.86895788588859  4.59537674367437  4.95383164086409
 1 -3.24379737473747  3.02250324782478  5.10374538053805
 1 -5.30529359325933  6.48461265566557  2.25946126752675
 1 -10.10058919241924  2.99385004210421 -3.20997424912491
 1 -10.04248504640464  4.74964880898090 -2.96692698339834
 1 -9.63234303410341  3.94377279127913 -5.35118032033203
 1 -8.03755326472647  4.88715846124613 -4.80932088708871
 1 -8.11943179217922  3.16645600440044 -4.79852977777778
 1 -8.04121171077108 -1.18355889878988 -4.99531052935294
 1 -8.32345332833283 -2.68732213731373 -4.05353799079908
 1 -9.45772585208521 -1.31184800820082 -3.71068797549755
 1 -4.36536389378938 -3.98382320892089 -1.44232751965197
 1  2.38636976997700 -6.37523546654665  0.60350630753075
 1  2.03643438683868 -5.10557753385338 -0.52046549614961
 1  3.95555767806781 -4.28393767556756  1.93819882748275
 1  2.47875286198620 -3.54521014211421 -1.46031857285729
 1  3.64888950225023 -2.19240279957996 -1.53393586408641
 1  4.40816299029903 -3.64733846304630 -1.65206413231323
 1  4.86538657955796 -1.31499792379238  0.76565844934493
 1  5.15327385468547 -2.71672330473047  1.81956683698370
 1  6.46752427912791 -3.80609380148015  0.04053193719372
 1  6.14964512491249 -2.38427603660366 -1.18389898539854
 1  7.18451738303830 -0.73311663676368  0.49454670017002
 1  7.59625172807281 -1.95510209330933  1.54568895419542
 1  8.64949905920592 -1.83472174737474 -1.17196053415342
 1  8.60604512321232 -4.15246401780178 -0.13767756015602
 1  10.34606394719472 -3.48393259535954 -0.56474658815882
 1  9.57836689808981 -3.49984107560756  1.07975841854185
 1  9.33833298389839  0.18478420462046  0.35250061386139
 1  10.09171926942694 -0.68484501840184  1.49493903390339
 1  11.74198934023402 -1.74050408230823 -0.39213358655866
 1  10.99626571327133 -0.43038594349435 -1.40712204580458
 1  11.41652268576858  1.32555698489849  0.16493693849385
 1  12.20290511381138  0.17587877927793  1.19824810501050
 1  13.31099790049005  0.57651208350835 -1.66497873657366
 1  14.73327266556656 -0.37469568226823  0.84907058705871
 1  14.00793636463646 -1.67367638393839 -0.27172349384938
 1  15.40421140954095 -0.80589378757876 -1.02137903040304
 1  13.37662585678568  2.66284090319032 -0.67262905060506
 1  14.22446914721472  2.02378266746675  0.97466468036804
 1  15.93646530233023  1.26131474417442 -0.83629011971197
 1  15.09927551095110  2.08931284408441 -2.09679105880588
 1  15.41575297989799  4.31214659265927 -0.69990198829883
 1  16.41115388548855  3.47351399279928  0.57883778417842
 1  18.18794247564756  3.11111260246025 -0.93418249784979
 1  16.39563028342834  4.63255978487849 -3.16013837363736
 1  18.28896481998200  4.53790330363036 -3.21396600170017
 1  17.06779697989799  3.10221129112911 -3.23837187178718
 1  17.88181422862286  5.33441465896590  0.37232889708971
 1  19.06760428272828  5.32162631483148 -1.24009092349235
 1  17.48731028192819  6.00720022312231 -1.24079814111411
 1 -4.79925522692269 -7.85212464556456  0.11102756505651
 1 -6.72536696699670 -7.04325141174118  0.77660116761676
 1 -5.12548071667167 -6.80834240984098  1.76699115571557
 8 -7.74856244784478  6.91477797859786 -0.41730951495150
 1 -8.94404270137014  6.16835248014801 -2.00545622842284

