%nproc=4
%Mem=2GB
# td=(NStates=1) iop(3/107=0140000000,3/108=0140000000) iop(3/107=0140000000,3/108=0140000000) CAM-B3LYP/6-31G(d,p) 

TD

0 1
12 -6.85683825592559  0.67631677577758  0.14996261576158
 6 -4.59756686318632 -1.92433085488549  0.33960423742374
 6 -4.31469328472847  2.86746837993799  1.14570745234523
 6 -9.12944564926493  3.17946197029703 -0.38217771947195
 6 -9.40454855245525 -1.76210924052405 -0.64050410911091
 7 -4.77033210511051  0.39273867156716  0.75489452155215
 6 -4.02747001260126 -0.81052075887589  0.75319587498750
 6 -2.53577699629963 -0.52665442464246  1.17225928822882
 6 -2.54233419921992  0.98454860366037  1.35080724322432
 6 -3.98338460136014  1.47742782798280  1.01473624832483
 6 -2.30813709940994  1.16584838073807  2.93496805960596
 6 -1.69749849824983 -0.92843540694069 -0.00024869856986
 6 -0.19459757805781 -1.05857756435644  0.44817389088909
 6  0.84832591179118 -1.26744398129813 -0.65171334513451
 8  0.85948601670167 -0.58884149664967 -1.77706869706971
 8  1.84997528412841 -2.02139243784378 -0.31978690119012
 7 -6.67506924912491  2.75671604160416  0.31707545544554
 6 -5.63292385328533  3.29558820202020  0.77963425962596
 6 -6.01025524072407  4.74182386718672  0.80306517511751
 6 -7.32511322472247  4.96224231473147  0.24349093239324
 6 -7.82683438733873  3.50255906430643  0.06563139453945
 6 -4.97021194149415  5.80075750625062  1.07698536653665
 6 -8.03262482378238  6.08369528962896  0.13663318701870
 8 -7.24925884208421  7.30479209580958  0.06456431323132
 7 -8.98589214271427  0.69946080528053 -0.33807645674567
 6 -9.64906857925793  1.74542927822782 -0.38190924322432
 6 -10.93982061236124  1.45110498159816 -0.74820060126013
 6 -10.98817317481748 -0.02743183878388 -0.91943279877988
 6 -9.70411207450745 -0.41954011721172 -0.56928900560056
 6 -12.16335311061106  2.47333352645265 -1.07127177797780
 6 -12.21088420892089 -0.67066062836284 -1.25400353405341
 6 -12.04603146524653 -0.79920208540854 -2.77467026172617
 7 -7.00600708360836 -1.38097065836584 -0.09522216671667
 6 -8.08954161576158 -2.24127412411241 -0.39288248624862
 6 -7.61277886298630 -3.68373569596960 -0.33987499759976
 6 -6.38098371957196 -3.53321248214821 -0.00893915451545
 6 -5.94530081878188 -2.07342615711571  0.21516770107011
 6 -8.38865738923892 -4.87043442124212 -0.75109792569257
 6 -5.07156336083608 -4.34099989808981 -0.03239521382138
 8 -4.87185893459346 -5.49346988528853 -0.05203469686969
 6 -3.70150387578758 -3.22003256245625  0.36621126832683
 6 -3.27241075197520 -3.71130730623062  1.74060377337734
 8 -4.00282552265227 -3.95368210301030  2.73201187098710
 8 -1.79156083098310 -3.68337464276428  1.61680161936194
 6 -1.18672719481948 -4.02820791089109  2.73450787598760
 6  2.89833172597260 -2.25567074397440 -1.30180142424242
 6  4.03647741514151 -1.30283728482848 -0.97988352065207
 6  5.08780953635364 -1.02824969636964 -1.79214541614161
 6  5.39927391119112 -1.45191832653265 -3.21503848604860
 6  6.23624744934493 -0.01652930583058 -1.27420397889789
 6  7.55084377837784 -0.88772455455546 -1.00374711201120
 6  8.49114167446745  0.17577321192119 -0.43011149164916
 6  9.91239432883288 -0.52944986528653 -0.00013831953195
 6  9.73508102440244 -1.24806362106211  1.50738510731073
 6  11.11765409540954  0.53397825202520  0.08051288968897
 6  12.57928319881988 -0.30048874167417  0.41557986918692
 6  13.55032657525753  0.90830810551055  0.40414331273127
 6  14.94514084928493  0.45727900600060  0.47230189228923
 6  14.98777376547655 -0.32082436293629  1.67303722772277
 6  16.15902553095309  1.39638454045405  0.22158536383638
 6  17.44451392949295  0.66862208660866  0.03497662376238
 6  18.40686023342334  1.79856704790479 -0.50887103390339
 6  19.85665786688669  1.24105260006001 -0.51372145584558
 6  19.95434523582358  0.47062249254925 -1.83068886008601
 6  20.94183135203521  2.27862928092809 -0.49863495939594
 1 -3.68742938123812  3.73232448344835  1.63255265696570
 1 -9.99037301980198  4.11285037013701 -0.35177881178118
 1 -10.23507599919992 -2.37998839813981 -0.92564539043904
 1 -2.74602711951195 -1.28292591039104  1.94687473577358
 1 -1.80422976157616  1.46368684488449  0.84950140354035
 1 -1.44584596829683  0.76833514791479  3.22196290739074
 1 -2.54183235713571  2.12577115351535  3.00842696049605
 1 -3.18797112961296  0.84220210551055  3.53968983808381
 1 -1.89931895219522 -1.85422669566957 -0.56441422822282
 1 -1.59474464346435 -0.05311678457846 -0.63678346914691
 1  0.11326932523252 -0.39052048534853  1.18622448764876
 1 -0.22850657045705 -2.06467280108011  0.99232946504650
 1 -4.28596312671267  6.04384221212121 -0.14602964526453
 1 -5.49141942254225  6.69639231513151  1.68590549664966
 1 -4.26626765496550  5.52314127512751  2.07099487178718
 1 -9.16945996009601  5.97437254645465 -0.30142651845184
 1 -12.61586113971397 -1.49401026852685 -0.90572499969997
 1 -12.96622283728373 -0.03901750195019 -0.64992262866287
 1 -13.10432825592559 -1.66875899129913 -3.03538065516552
 1 -12.07165412921292  0.03413083458346 -3.59496166566657
 1 -11.15010183458346 -1.32047536453645 -3.21028763616362
 1 -9.20809999329933 -4.62094865046505 -1.59902213021302
 1 -7.84349956455646 -6.00379039163917 -1.53348300020002
 1 -9.08419569956996 -5.11685364656466  0.11982659215922
 1 -3.00070965236524 -3.34767849274928 -0.11084939173917
 1  3.41902351775177 -3.21485875967597 -1.06619233633363
 1  2.63635792459246 -2.11482739773977 -2.21915215051505
 1  4.12586991469147 -0.84021677007701  0.12783638523852
 1  4.84643770077008 -1.68933240574057 -4.15146526152615
 1  6.25409898829883 -1.34169284468447 -3.70879210311031
 1  5.57666149354936 -2.49404201850185 -3.31926611041104
 1  6.34196461836184  0.31504684208421 -2.01719433663366
 1  5.94254936433643  0.64943049084908 -0.35536980038004
 1  7.25216639553955 -1.52201039813981 -0.23962224062406
 1  7.85144054245425 -1.17339612991299 -1.98291776767677
 1  8.90133226462646  1.13675427022702 -1.24195698099810
 1  7.86854535263526  0.60510569876988  0.38528423682368
 1  10.57316976407641 -1.46912435613561 -0.73521067866787
 1  8.90698294259426 -2.19814863056306  1.74307266806681
 1  10.83082915231523 -1.97254113531353  1.98773066446645
 1  9.09694290589059 -0.61492271467147  2.50647195229523
 1  10.85136877467747  1.14238699859986 -1.07067423902390
 1  10.77174692129213  1.26298517411741  0.83113699399940
 1  12.62082962516252 -0.93221566106611  1.44721840514051
 1  12.93890604460446 -1.29341756235624 -0.43832683018302
 1  13.21472634263426  1.42241178617862 -0.40519942454245
 1  13.22116416121612  1.74806905820582  1.32923871327133
 1  14.90255168096810 -0.53042055805581 -0.12970116131613
 1  14.68437833773377  0.27093748924892  2.56397917091709
 1  14.41988926242624 -1.20054772667267  2.01075857395740
 1  16.20422745584558 -0.49293287638764  1.89841631933193
 1  16.15272640754075  1.98937893129313 -0.77123709840984
 1  16.21512554515451  2.09622915841584  0.90349867306731
 1  17.73976529162916  0.20425359595960  1.04990517721772
 1  17.46899442364236 -0.26235806660666 -0.60337171457146
 1  18.01820682778278  2.31658820662066 -1.26617960626063
 1  18.53660365646565  2.47268117501750  0.30257692819282
 1  20.11790435163516  0.70025287148715  0.16318966976698
 1  19.98681699969997  0.85760080968097 -3.01060318551855
 1  20.86815110511051 -0.08365016681668 -2.01511564496450
 1  19.28963169016902 -0.34746246464646 -2.11372944764476
 1  20.77326410501050  3.05112469156916  0.32350310391039
 1  22.11390913121312  1.59868645134513 -0.52621533653365
 1  21.17373402630263  3.38243573077308 -1.07563235953595
 1 -0.27965359045905 -5.46389913931393  2.61836018401840
 1 -2.48056773777378 -4.61222849654965  3.74837547414742
 1 -0.70101411471147 -2.71213969106911  3.04197835103510
 8 -11.83753212751275  3.62875767496750 -1.00153196689669
 1 -13.01520203170317  1.99985122522252 -1.60436104110411

