%nproc=4
%Mem=4GB
# td=(NStates=1) iop(3/107=0140000000,3/108=0140000000) iop(3/107=0140000000,3/108=0140000000) CAM-B3LYP/6-31G(d,p) 

TD

0 1
12 -5.68031953855385  1.14803967826783  0.19966857205721
 6 -5.02632301950195 -2.08590705400540 -0.43964083088309
 6 -3.29731852095209  1.18598888368837  2.73973934723472
 6 -6.30065886158616  4.49539280348035  0.77186739553955
 6 -8.04318008510851  1.21456230693069 -2.49765743924392
 7 -4.44522877617762 -0.23391158295830  1.01401274007401
 6 -4.21893542104210 -1.49413311491149  0.58299064866487
 6 -3.21346447094709 -2.27346064886489  1.42870723442344
 6 -2.87884105510551 -1.26544943584358  2.56128268436844
 6 -3.58794622202220  0.03446081838184  2.07324190939094
 6 -3.48206124552455 -1.79868330973097  3.88701140054005
 6 -1.93069826302630 -2.63086049534953  0.62300760626063
 6 -1.04348599209921 -3.66801438203820  1.39560314831483
 6  0.17255235573557 -4.00882472317232  0.63989218391839
 8  0.51693175747575 -3.43781109470947 -0.45950218441844
 8  1.07961480718072 -4.71662127942794  1.30325493279328
 7 -4.89391020732073  2.59887926482648  1.49687991969197
 6 -4.03718580838084  2.42726014771477  2.51297190049005
 6 -3.87651715541554  3.75233373557356  3.29853040924092
 6 -4.64682523522352  4.59460098839884  2.68866813811381
 6 -5.32140824502450  3.92227032223222  1.60499659195920
 6 -2.81055641874187  3.74434180998100  4.34289847924792
 6 -4.83446997759776  6.05413283378338  3.04370387518752
 8 -4.32213226122612  6.56633452145214  3.99230313021302
 7 -7.00520432033203  2.65994589038904 -0.63939559585959
 6 -6.98238095289529  3.98386800400040 -0.36395808450845
 6 -7.85962114851485  4.65686241104110 -1.29057316681668
 6 -8.39395884918492  3.70012694259426 -2.14744368876888
 6 -7.85338422892289  2.36345235403540 -1.73673962046205
 6 -8.31829482038204  6.03022293169317 -1.25716522532253
 6 -9.45415977927793  3.85730612881288 -3.19101373417342
 6 -8.83303475717572  3.96799494569457 -4.58355475947595
 7 -6.31748016701670 -0.13681869956996 -1.16856194819482
 6 -7.42950247984798 -0.04256032463246 -2.12595680638064
 6 -7.64301180838084 -1.27847955155516 -2.70847336993699
 6 -6.77313686248625 -2.17635720752075 -1.96100226592659
 6 -6.11036945234523 -1.41265483058306 -1.02418854925493
 6 -8.68042350015001 -1.77531765776578 -3.59696659285929
 6 -6.24567823492349 -3.61444702860286 -1.98771232633263
 8 -6.62969736523652 -4.60675837423742 -2.53012927802780
 6 -5.07583614571457 -3.48394644724472 -1.00930325012501
 6 -5.13987146454645 -4.50996643774377  0.05772944474447
 8 -5.60408618021802 -4.27097610571057  1.17439380278028
 8 -4.97813751195120 -5.79510070647065 -0.43916706130613
 6 -5.37890545474547 -6.85138699199920  0.45965779557956
 6  2.30255122832283 -5.06584770497050  0.58961291569157
 6  3.49373390839084 -4.23175333623362  1.02328022782278
 6  4.13043243344334 -3.32730560066007  0.20461409640964
 6  3.80303464236424 -3.01284622592259 -1.07797730223022
 6  5.27351377717772 -2.56549159675968  0.86310010881088
 6  6.62471734303430 -2.76303922912291  0.04214568196820
 6  7.78859418301830 -1.80466982248225  0.55943163366337
 6  9.10052087338734 -1.98809364296430 -0.12401018351835
 6  9.65058143984398 -3.37594823522352  0.20736727902790
 6  10.01421200030003 -0.85908614601460  0.24354687018702
 6  11.49068637103710 -0.87214682158216 -0.20698946514651
 6  12.29711740034003  0.26603123062306  0.21155800340034
 6  13.57392984878488  0.47420229012901 -0.64953971717172
 6  14.43252155115512 -0.77069647224722 -0.44941909280928
 6  14.22151809140914  1.83885005660566 -0.33169242404240
 6  15.59981417181718  2.06724475267527 -0.98132312731273
 6  16.13716630103010  3.49920467326733 -0.57525813901390
 6  17.39736498559856  3.87626546814681 -1.35738967416742
 6  17.22707529722972  4.01402629432943 -2.87741996619662
 6  17.97858726482648  5.19891515681568 -0.74521398029803
 1 -2.45970169296930  1.22986726212621  3.41096156455646
 1 -6.50410838963896  5.64020940134013  1.03609260096010
 1 -8.83774418161816  1.09079938283828 -3.17421290009001
 1 -3.71627269206921 -3.16832214761476  1.82735079587959
 1 -1.91090821472147 -1.37827548914891  2.53219449554955
 1 -3.23291307040704 -2.88901206240624  4.26630017401740
 1 -3.23893468616862 -1.01617152155215  4.66787881768177
 1 -4.60735324702470 -1.62958203910391  3.78468241874187
 1 -2.39054436813681 -3.32182169946995 -0.18886951075107
 1 -1.26413424582458 -1.76036515281528  0.19578770037004
 1 -0.89831526502650 -3.26188748434843  2.41844606330633
 1 -1.43990871247125 -4.62872000320032  1.49143094109411
 1 -1.78851896569657  3.35838536293629  3.74362027172717
 1 -2.46383737383738  4.81817902390239  4.37648390609061
 1 -2.74749774477448  3.26217721522152  5.48719372537254
 1 -5.41637470137014  6.55762995739574  2.43581890329033
 1 -10.04651378487849  2.90651130823082 -3.22269552125213
 1 -10.15811660956096  4.63362720682068 -3.04027431813181
 1 -9.65638543834383  3.87058547254726 -5.25792099439944
 1 -8.19468897829783  4.96792653805381 -4.72687264226423
 1 -8.24742459145915  2.98324768356836 -4.79598952375238
 1 -8.70924851445145 -1.27242778567857 -4.53425442374237
 1 -8.40525150815082 -2.78366177127713 -3.99059169616962
 1 -9.69081916141614 -1.78510533393339 -3.18582548924892
 1 -4.12419977737774 -3.80809563616362 -1.53116640354035
 1  2.56945807880788 -6.04170211321132  0.75264122102210
 1  2.03194393779378 -4.89943691979198 -0.47641109070907
 1  3.79250137243724 -4.32991227302730  2.00785579317932
 1  2.59636462316232 -3.20076569766977 -1.29429197019702
 1  3.84575918921892 -1.93324688398840 -1.32868533903390
 1  4.44219639363936 -3.66026975617562 -1.80927985388539
 1  5.11869191009101 -1.30484690869087  0.81767365086509
 1  5.50615914321432 -2.93797542994299  1.92348722902290
 1  6.74331185788579 -3.70958415051505  0.14250213421342
 1  6.33374353475347 -2.64933254225423 -1.14111470697070
 1  7.50061899319932 -0.74035736083608  0.44891213671367
 1  7.95192729562956 -2.14938152125213  1.61318570387039
 1  8.81854596389639 -1.85645392059206 -1.11422476057606
 1  8.80868538723872 -4.04855362676268  0.04154036163616
 1  10.54655399619962 -3.70326452855286 -0.50639075257526
 1  9.79746880828083 -3.44621571307131  1.21219166186619
 1  9.48785793639364  0.17383310951095 -0.13776841304130
 1  10.13835393289329 -0.77200373427343  1.42360190019002
 1  11.79134427572757 -1.83843387528753  0.19847547434743
 1  11.61749783648365 -0.94556746164616 -1.21161249484949
 1  11.52505353885389  1.03216764596460  0.18721916671667
 1  12.48683350665067  0.43995518691869  1.30369865006501
 1  13.30848764946495  0.52380681298130 -1.64254649334933
 1  14.47759709800980 -0.81408962166217  0.57450313031303
 1  14.05054062506251 -1.66402541884188 -0.77329365086509
 1  15.40395138353835 -0.81950514871487 -0.92160905340534
 1  13.59307750195019  2.48273289238924 -0.54804659235924
 1  14.42318901920192  1.82467275647565  0.75287250115011
 1  16.37881953775377  1.22047065976598 -0.79128561926193
 1  15.32327791119112  2.04062797559756 -2.07555893559356
 1  15.30067147174717  4.05262064006401 -0.73401539963996
 1  16.31757452755276  3.35440208160816  0.55453535393539
 1  18.12886656805680  2.97261875307531 -1.05316439603960
 1  16.46054677507751  4.68242477137714 -3.05592795259526
 1  18.28214413791379  4.45023453675368 -3.24539914501450
 1  16.98392859305931  2.93736480648065 -3.40905894049405
 1  18.19396544374437  4.99535075257526  0.32498416261626
 1  19.05115263756376  5.48611276347635 -1.23584049844985
 1  17.21527307820782  6.00923042614261 -1.02973703500350
 1 -5.13606890829083 -7.92071150425043  0.03445990829083
 1 -6.67546197649765 -6.72892997959796  0.48444195169517
 1 -4.98793696229623 -6.94299587518752  1.47155161176118
 8 -7.81751934353435  6.87266376717672 -0.51764954895490
 1 -9.01991028812881  6.35546119101910 -2.05773145594559

