%nproc=4
%Mem=4GB
# td=(NStates=1) iop(3/107=0140000000,3/108=0140000000) iop(3/107=0140000000,3/108=0140000000) CAM-B3LYP/6-31G(d,p) 

TD

0 1
12 -5.63497500410041  1.12438731303130  0.23730233543354
 6 -4.98082847004700 -2.09029749304931 -0.42702956975698
 6 -3.53303209230923  1.17784806960696  2.74890026332633
 6 -6.30468926462646  4.49947321152115  0.73430363916392
 6 -8.02493826092609  1.08122897359736 -2.29555722922292
 7 -4.39695394869487 -0.32903109490949  0.97840917971797
 6 -4.20258378587859 -1.59633333493349  0.64882723232323
 6 -3.19717284178418 -2.34722802560256  1.45072943664366
 6 -2.97144031503150 -1.32864575547555  2.65762231833183
 6 -3.62129955735574 -0.04381700940094  2.07799238443844
 6 -3.71049408880888 -1.74898834023402  3.96478917831783
 6 -1.92538773197320 -2.69301671097110  0.70762606810681
 6 -0.98009965346535 -3.51812939353935  1.38664225222522
 6  0.24987008750875 -3.89608344904490  0.62143033773377
 8  0.44631469576958 -3.40063737733773 -0.52542877707771
 8  1.06217306300630 -4.60364998229823  1.32748735603560
 7 -4.96485730203020  2.62441181808181  1.46794702640264
 6 -4.05894798459846  2.39317673937394  2.56330693399340
 6 -3.82402190589059  3.64226272847285  3.25418597479748
 6 -4.60513106580658  4.55913744204420  2.70672994429443
 6 -5.42750885508551  3.88668676387639  1.63840993329333
 6 -2.80680604370437  3.71635901170117  4.33885807520752
 6 -4.83030956155616  5.97341476197620  3.05790529532953
 8 -4.18375842384238  6.51125901390139  3.94413831373137
 7 -6.84979877977798  2.61159105490549 -0.68046970327033
 6 -6.95557827262726  3.90868048524852 -0.29519120782078
 6 -7.89251443784378  4.59960668546855 -1.20489459895990
 6 -8.42941239453945  3.54770170007001 -2.09607855225523
 6 -7.77062595309531  2.37176318511851 -1.69845579207921
 6 -8.21376436733673  6.03155306470647 -1.22091159996000
 6 -9.24128849214922  3.80576097429743 -3.31841647444744
 6 -8.53050450415042  4.10156830303030 -4.58671507550755
 7 -6.30172859185919 -0.14931994969497 -1.09013410541054
 6 -7.31532106170617 -0.08545461406141 -2.06999120982098
 6 -7.54059156635664 -1.35012671627163 -2.60545306790679
 6 -6.65159470827083 -2.13929350115011 -2.08574474017402
 6 -5.91982039743974 -1.38147171227123 -1.17316344674467
 6 -8.54061951975197 -1.62757288328833 -3.82191908810881
 6 -6.09273294039404 -3.51679726362636 -1.98450200530053
 8 -6.43142753825383 -4.45255295369537 -2.68558482358236
 6 -4.99135769786979 -3.55717376997700 -0.93749606940694
 6 -5.42716019341934 -4.54356979807981  0.04707837963796
 8 -5.94182995459546 -4.33408241634163  1.18165452885289
 8 -5.05942564076408 -5.85925712211221 -0.34130727532753
 6 -5.71436900110011 -6.99745159845985  0.28287011681168
 6  2.34485545874587 -4.99902102230223  0.68039199359936
 6  3.47027156215622 -4.07277743864386  1.02033993379338
 6  4.11568095829583 -3.22323519361936  0.26369000400040
 6  3.85288962786279 -3.07834277557756 -1.30479998449845
 6  5.17890431623162 -2.28465351295130  0.70610440924092
 6  6.62353722502250 -2.62877580278028  0.03310477787779
 6  7.74155947954795 -1.83726308180818  0.72857854835484
 6  9.07291811311131 -2.06729156275628 -0.06013379587959
 6  9.60794717641764 -3.41519215961596  0.19853639593959
 6  9.98688926802680 -0.96157639503950  0.42966548204820
 6  11.30403770617062 -0.83625323222322 -0.41160992719272
 6  12.16649433803380  0.38216284378438  0.10330717831783
 6  13.53947640344034  0.48177304720472 -0.55929069226923
 6  14.42860115911591 -0.72191159375938 -0.14838898979898
 6  14.21333727332733  1.82867903950395 -0.24446370117012
 6  15.55169936033603  2.18298632683268 -1.01125612061206
 6  16.08089067346735  3.57460221302130 -0.67619823302330
 6  17.35747099619962  3.82587042864286 -1.51110504570457
 6  17.19829241894189  3.77535242694269 -3.01568379257926
 6  18.04960436653665  5.22037730303030 -1.01315077397740
 1 -2.77552327512751  1.43172744814482  3.47832830123012
 1 -6.36250422922292  5.66809218961896  0.99828882058206
 1 -8.87880828802880  0.97716801970197 -2.97393287208721
 1 -3.91092215701570 -3.07699301470147  2.00558861966197
 1 -1.92932005590559 -1.24544220582058  2.87053832993299
 1 -3.17736751585159 -2.73131629282928  4.44828837283728
 1 -3.63043383608361 -0.79102900730073  4.63965599539954
 1 -4.72983549524952 -1.95216429732973  3.77677162766277
 1 -2.13136845054505 -3.04072358965897 -0.29340996479648
 1 -1.45767359975998 -1.71202031833183  0.30904902650265
 1 -0.34143957745775 -3.04828612421242  2.24819903860386
 1 -1.33084780638064 -4.44181131233123  1.82085388338834
 1 -1.96275638943894  3.22297182158216  3.97531344104410
 1 -2.55914690479048  4.82099930593059  4.39981623932393
 1 -3.07777077207721  3.00729172667267  5.28711371737174
 1 -5.47401046494649  6.47156135053505  2.50953627502750
 1 -9.99722885638564  2.84712536963696 -3.17305055675568
 1 -9.93898469636964  4.76316016011601 -3.07179747044704
 1 -9.26110591039104  4.56875528952895 -5.24014921722172
 1 -7.64616412581258  4.81589133453345 -4.29150910591059
 1 -8.14381423042304  3.08679803860386 -5.17903782858286
 1 -8.03561115071507 -1.17513805670567 -4.81984298259826
 1 -8.48507949094910 -2.83052645774577 -3.99597223422342
 1 -9.39031911141114 -1.30365718911891 -3.35323222992299
 1 -3.96107346474647 -3.73139796639664 -1.25436872377238
 1  2.59114024702470 -5.96874481748175  1.18081403830383
 1  2.19920066346635 -4.89980695679568 -0.20748419801980
 1  3.70665278757876 -4.20333961576158  2.07716272387239
 1  2.75004999169917 -3.09287490859086 -1.50507304830483
 1  4.14838945224523 -2.18544210351035 -1.78731120162016
 1  4.15354752875288 -3.87905163436344 -1.91442036793679
 1  4.84895493639364 -1.23304972897290  0.45464734823482
 1  5.20085861316132 -2.25571720412041  1.69323420372037
 1  6.48706623332333 -3.78893208530853  0.37423530753075
 1  6.60169032943294 -2.39952756175618 -1.08833942944294
 1  7.59357828912891 -0.71558488358836  0.70592783828383
 1  7.80676277917792 -1.95826240934093  1.86476086138614
 1  8.76754086338634 -2.05996427162716 -1.13913725182518
 1  8.95903042174217 -4.09060783218322 -0.14098789118912
 1  10.55374471527153 -3.66507070917092 -0.23034314781478
 1  9.98888795019502 -3.41710280178018  1.23268371107111
 1  9.63225237583758  0.00129585578558  0.18938430223022
 1  10.23656375387539 -0.85212174607461  1.59061860186019
 1  11.83988913021302 -1.76911694359436 -0.19492386558656
 1  11.12243833053305 -0.85259816471647 -1.56201753535354
 1  11.45657669116912  1.33903833303330 -0.29644920012001
 1  12.29651447474747  0.29669086048605  1.27749602980298
 1  13.28033483418342  0.58405283758376 -1.68139037773777
 1  14.56592593089309 -0.45679389208921  0.96568224822482
 1  14.12333790479048 -1.75847486378638 -0.23823014451445
 1  15.53593458185819 -0.60113331153115 -0.27046393889389
 1  13.34909310351035  2.61534615371537 -0.69740152785279
 1  14.33705040534053  1.81058134733473  0.83643085698570
 1  16.33531518731873  1.43106171887189 -0.81680817151715
 1  15.35080066346635  2.36873078587859 -2.11342272197220
 1  15.46287769236924  4.27952333033303 -0.83544554265427
 1  16.46084885498550  3.38891553295330  0.43306320672067
 1  18.09824350575057  3.25799729092909 -1.01474055365537
 1  16.13949466986698  4.48751528042804 -3.18211057085709
 1  18.12879880338034  4.26260577387739 -3.52147675277528
 1  17.02614281448145  2.86666773677368 -3.31730976557656
 1  18.17999404660466  4.97080829832983  0.03092475667567
 1  19.02419994229423  5.37784193639364 -1.45801271567157
 1  17.40362191309131  5.97356685978598 -1.10661472277228
 1 -5.09133443484348 -8.04757419051905 -0.11126466416642
 1 -6.78581301160116 -7.24117120372037  0.00090359785979
 1 -5.68520668926893 -7.11293286888689  1.59452390899090
 8 -7.68318591019102  6.91611811261126 -0.48352613661366
 1 -8.94440273737374  6.23955960086009 -1.91599728252825

