%nproc=4
%Mem=4GB
# td=(NStates=1) iop(3/107=0140000000,3/108=0140000000) iop(3/107=0140000000,3/108=0140000000) CAM-B3LYP/6-31G(d,p) 

TD

0 1
12 -5.59717122372237  1.13493836813681  0.13197180238024
 6 -5.09862024922492 -2.16956541984198 -0.24243110991099
 6 -3.40127891699170  1.15678596339634  2.83479885318532
 6 -6.20880967666767  4.52416568076808  0.63559376817682
 6 -8.00300606770677  1.18910976167617 -2.48004567806781
 7 -4.36427068036804 -0.28732692449245  1.07028836763676
 6 -4.25746927442744 -1.65122882448245  0.65944829442944
 6 -3.30063318781878 -2.41260456325633  1.47563192689269
 6 -2.97014018501850 -1.39635252615262  2.67027358345835
 6 -3.71437886528653 -0.07990061776178  2.20458504370437
 6 -3.59097213661366 -1.82087552895290  3.93120581998200
 6 -2.05612080528053 -2.73148055735574  0.68154345984598
 6 -1.08986062956296 -3.67593517411741  1.44378796679668
 6  0.15807090759076 -3.96294013471347  0.60740893559356
 8  0.42167223152315 -3.60207752135214 -0.49155538973897
 8  1.08981582728273 -4.64291390869087  1.39708431573157
 7 -4.84669548584858  2.63242261916192  1.42712294399440
 6 -3.94201629142914  2.42916033773377  2.47044764806481
 6 -3.68233773747375  3.68741724392439  3.16607716391639
 6 -4.46926747944794  4.59396092439244  2.51459073037304
 6 -5.20459656385639  3.97890598579858  1.45282137443744
 6 -2.83760912401240  3.79665704150415  4.27460164956496
 6 -4.51149768036804  6.00774819531953  2.85661516631663
 8 -3.90387043504350  6.57562545054505  3.77065096499650
 7 -6.85050885078508  2.55611550735074 -0.65334699099910
 6 -7.01490420522052  3.86224584178418 -0.31061274997500
 6 -7.83960914731473  4.61047777257726 -1.26260036953695
 6 -8.35162461576158  3.63909083898390 -2.06216516091609
 6 -7.74223311381138  2.41062707150715 -1.71815776227623
 6 -8.24480747164717  6.10956086548655 -1.12216172497250
 6 -9.46352071537154  3.81050144834483 -3.07276190899090
 6 -8.81904335803580  4.19143728992899 -4.43644004800480
 7 -6.47284570357036 -0.18560357805781 -1.01181627362736
 6 -7.37423695329533 -0.06080214881488 -2.10229444014401
 6 -7.55244275147515 -1.31213291689169 -2.79079160176018
 6 -6.75532508130813 -2.21481105290529 -1.97217338303830
 6 -6.02410082548255 -1.44920848594859 -1.12991912231223
 6 -8.41574703250325 -1.56207633363336 -3.93051994819482
 6 -6.32492615971597 -3.53363894779478 -1.93324687978798
 8 -6.70469486498650 -4.54332203060306 -2.45927219231923
 6 -5.10006856895690 -3.59095714831483 -0.87801012081208
 6 -5.36125360276028 -4.72613805490549  0.04575824762476
 8 -5.72520829242924 -4.64854386248625  1.18078444184418
 8 -5.00769046724673 -5.91165236163616 -0.52170531513151
 6 -5.42119968416842 -7.03363521682168  0.41294312411241
 6  2.29403037623762 -4.93704482468247  0.68946290069007
 6  3.31774630963096 -3.87368752965297  0.95010291009101
 6  3.97189657985799 -3.11186405650565  0.19320295529553
 6  3.75601994089409 -3.00208514981498 -1.28995850035004
 6  5.14370079587959 -2.27320236783678  0.64473827262726
 6  6.61607647894790 -2.59477240244024  0.15277674507451
 6  7.68979430303030 -1.73967332283228  0.61596728722872
 6  9.04233505480548 -1.95906073967397 -0.04593237573757
 6  9.59282566426643 -3.35871651205120  0.07170371267127
 6  10.02592317141714 -0.91362159955996  0.43831634713471
 6  11.43292059445945 -0.97070667756776 -0.28930769696970
 6  12.26428411701170  0.33605823332333  0.10587743534353
 6  13.59845230103010  0.53232810271027 -0.60119488268827
 6  14.58560685968597 -0.65969537213721 -0.30027417831783
 6  14.23011895149515  1.85310148174817 -0.19615887068707
 6  15.49394358475847  2.20018804700470 -1.01967696269627
 6  16.01375395979598  3.58475322812281 -0.71006161936194
 6  17.29927517661766  3.80051789338934 -1.32928686388639
 6  17.17409999969997  4.14262915461546 -2.86453867806781
 6  18.05154456055605  5.06177144244424 -0.75552501140114
 1 -2.71044676747675  1.13679795519552  3.65685615401540
 1 -6.24369234803480  5.50151553195319  0.96355534723472
 1 -8.79154956215621  1.27853815671567 -3.32612809160916
 1 -3.50911197599760 -3.20262557795780  2.08198625942594
 1 -1.92305942984298 -1.34677233883388  2.70592186828683
 1 -3.23933371247125 -2.71933509470947  4.45078862286229
 1 -3.70388118081808 -1.12867277167717  4.76787881768177
 1 -4.58724123582358 -2.05886496739674  3.91924587508751
 1 -2.33346866056606 -3.03137265456546 -0.20893151695169
 1 -1.53738157055706 -1.76730584688469  0.47728585018502
 1 -0.83391882538254 -3.30519181478148  2.41358557725773
 1 -1.62613733533353 -4.55506263746375  1.71861365936594
 1 -1.80509062286229  3.68973849824983  3.98808471817182
 1 -2.93759474957496  4.76526373237324  4.59444570227023
 1 -3.02433542854285  3.04213521102110  5.11691669766977
 1 -5.30613367726773  6.69737393179318  2.12306762816282
 1 -10.14909404290429  2.88737939503950 -3.30629388108811
 1 -10.24261505940594  4.59507335143514 -2.83427371807181
 1 -9.52645244504451  4.17357577157716 -5.18300350265026
 1 -8.35332484188419  5.25277502290229 -4.32173212821282
 1 -8.16980682968297  3.36006536533653 -4.82894281908191
 1 -7.88680627022702 -1.07779832273227 -4.83356435473547
 1 -8.41744272727273 -2.59849325442544 -4.07667030403040
 1 -9.49620970047005 -1.30429725312531 -4.07452435913591
 1 -4.18675603300330 -3.97965279187919 -1.50109339623962
 1  2.55007614061406 -6.04095203820382  1.05034099099910
 1  1.93069381278128 -5.16596357245724 -0.28366181578158
 1  3.63524564686469 -3.86496577837784  2.02739774737474
 1  2.78235322202220 -3.57568318941894 -1.59613215421542
 1  3.90265487878788 -2.06746030533053 -1.84920739123912
 1  4.46178835283528 -3.67812154135414 -1.82476140204020
 1  4.89016905780578 -1.27529395339534  0.25820770427043
 1  5.05929445674567 -2.14790642304230  1.72453733403340
 1  6.84354188088809 -3.75084827692769  0.23739162316232
 1  6.46064622502250 -2.51601921092109 -0.74836543204320
 1  7.46865579687969 -0.65346867196720  0.45890313581358
 1  7.87880998389839 -2.08063464656466  1.75910029532953
 1  9.08578268756876 -1.76140441564156 -1.07246058415842
 1  8.94872939163916 -4.23124189558956 -0.27474126652665
 1  10.32483182398240 -3.38542274437444 -0.50706081958196
 1  9.82424148554855 -3.59388047954795  1.08342878557856
 1  9.67435658625863  0.10537626382638  0.24032939673967
 1  10.34252434993499 -0.96456299019902  1.50858039803980
 1  11.98405354665466 -1.87734776667667  0.02834846164617
 1  11.15741182788279 -1.09995290019002 -1.40218155175518
 1  11.61274230773077  1.14893932313231  0.01527197199720
 1  12.69396421972197  0.21065225662566  1.20614889508951
 1  13.12626942764276  0.42033646594660 -1.70017225592559
 1  14.90402974127413 -0.71562977567757  0.81848752875288
 1  14.18498406940694 -1.75225424172417 -0.48061438293829
 1  15.41038202660266 -0.59000219841984 -0.83108000050005
 1  13.57263545774578  2.63594821392139 -0.27542933063306
 1  14.44915161546155  1.71289157835784  0.88518573247325
 1  16.15720737653765  1.61055966866687 -0.84649113981398
 1  15.23647923132313  2.20456436923692 -2.17845922562256
 1  15.17731913651365  4.43100847884788 -0.79438143624362
 1  16.11656442654266  3.72458910031003  0.47381728212821
 1  17.87739142054205  2.87326881808181 -1.15187426702670
 1  16.71528224862486  5.14045057395740 -3.13024538433843
 1  18.26811273477348  4.04145365866587 -3.21946655175518
 1  16.82682288248825  3.35157622762276 -3.54902293689369
 1  18.33396944414441  4.69967118461846  0.24223588778878
 1  19.01131865416542  5.09655380758076 -1.39387630203020
 1  17.37148869976998  5.93431293439344 -0.62957701900190
 1 -5.24743004440444 -7.91812124522452 -0.20876441414141
 1 -6.61345577587759 -6.78925601220122  0.56514002150215
 1 -4.74477264586459 -6.85104668026803  1.24116857345735
 8 -7.68656624822482  6.94610111091109 -0.45840362436244
 1 -9.20557885498550  6.46445209010901 -1.77221290409041

