%nproc=4
%Mem=4GB
# td=(NStates=1) iop(3/107=0140000000,3/108=0140000000) iop(3/107=0140000000,3/108=0140000000) CAM-B3LYP/6-31G(d,p) 

TD

0 1
12 -5.46078758535854  1.28680355465547  0.10038864406441
 6 -4.99397978517852 -2.16080454375438 -0.42444931173117
 6 -3.32245103420342  1.14484476927693  2.66970234353435
 6 -6.09530832653265  4.56883014721472  0.58967917671767
 6 -7.90073584068407  1.18726957765777 -2.39110678417842
 7 -4.34027828112811 -0.28070626242624  1.04249558835884
 6 -4.26980050755076 -1.55313901550155  0.64254660426043
 6 -3.27674079857986 -2.40062336513651  1.58755311901190
 6 -2.92994616561656 -1.45339823072307  2.67153370947095
 6 -3.59152658005801 -0.10774340204020  2.04537912311231
 6 -3.64551759115912 -1.85206864826483  3.91863456285629
 6 -2.08556374957496 -2.64480188948895  0.75284058955896
 6 -1.08029967346735 -3.68779636023602  1.47414100210021
 6  0.21198629912991 -4.00728456915692  0.59839803450345
 8  0.43210327462746 -3.56786410001000 -0.52704893909391
 8  1.02094894059406 -4.90256987428743  1.35108971627163
 7 -4.88031884818482  2.69328870577058  1.47327755945595
 6 -3.85971806160616  2.44874229592959  2.37160776407641
 6 -3.56044554825483  3.68254675687569  3.04272482868287
 6 -4.34753530623062  4.64428595689569  2.49970924222422
 6 -5.10132623682368  4.01354945014501  1.44036012831283
 6 -2.59888525162516  3.80626800260026  4.19692388178818
 6 -4.41188771937194  6.08746616711671  2.82951245604560
 8 -3.83060310831083  6.75063295129513  3.70060396029603
 7 -6.86645044494449  2.59910980678068 -0.70061171747175
 6 -6.83865658045805  3.97292690989099 -0.35215690439044
 6 -7.82598778517852  4.64893161796180 -1.21169527902790
 6 -8.32570202350235  3.69432636253625 -2.01908085248525
 6 -7.66776566706671  2.45750175897590 -1.73732967946795
 6 -8.19672266316632  6.04245415481548 -1.04622413121312
 6 -9.48014237753775  3.88016841504150 -2.99743437623762
 6 -8.98522997669767  3.93901204740474 -4.47574397839784
 7 -6.25493391239124 -0.10652567026703 -1.17548264026403
 6 -7.28510804040404 -0.02700876947695 -2.05651986268627
 6 -7.53937144434444 -1.33013471707171 -2.75071759435944
 6 -6.75973552235224 -2.26242581438144 -2.00089625532553
 6 -6.00892930833083 -1.43795736083608 -1.02914904530453
 6 -8.55593105090509 -1.48704883088309 -3.72470936713671
 6 -6.27707137423742 -3.65969155305531 -1.94767832293229
 8 -6.68428282378238 -4.61570926932693 -2.53964022912291
 6 -5.06204476657666 -3.61974002660266 -0.93562588238824
 6 -5.30901837923792 -4.73147858895890  0.16458012981298
 8 -5.88683445504550 -4.58230723882388  1.21776814021402
 8 -4.81789148734874 -5.89057025342534 -0.30358350295029
 6 -5.44530209440944 -7.05775762906291  0.44530636043604
 6  2.31437241044104 -5.22233335353535  0.52553650805081
 6  3.38149268426843 -4.18634879577958  0.96770467026703
 6  4.01052044224422 -3.29106197629763  0.14331796679668
 6  3.66350068896890 -3.04464940624062 -1.38850835533553
 6  5.12318874467447 -2.39768481608161  0.59795359415942
 6  6.50912578387839 -2.76031895709571  0.00923239063906
 6  7.60140546414642 -1.95297465296530  0.58575426592659
 6  8.91025184648465 -2.01425625922592 -0.10552833533353
 6  9.49504588628863 -3.39340998139814  0.22316885918592
 6  9.88825940504050 -0.87859809720972  0.49856237173717
 6  11.28688599099910 -0.82236184308431 -0.16865563176318
 6  12.09281697029703  0.34911953945395  0.26039288688869
 6  13.37513996979698  0.52939780968097 -0.48163292649265
 6  14.44353265226523 -0.60035943854385 -0.34134828572857
 6  14.09287522712271  1.88395456705671 -0.18312756755676
 6  15.30998518891889  2.32943097129713 -1.01921691669167
 6  16.05437802220222  3.63162791559156 -0.52748336153615
 6  17.30284553365336  3.98826666826683 -1.35293922912291
 6  17.06459904960496  4.10542543424342 -2.82483470767077
 6  17.92591199729973  5.17797306260626 -0.76216567546755
 1 -2.73976969976998  0.90990526592659  3.45653612201220
 1 -6.05802378117812  5.56389176957696  0.58169716141614
 1 -8.70892129932993  1.18456875977598 -3.33537901670167
 1 -3.97594865966597 -3.19723503890389  1.86301436223622
 1 -1.77523464736474 -1.39900756235624  2.76869814591459
 1 -3.23945372447245 -2.80281344254425  4.19798334233423
 1 -3.37405819851985 -1.22647255165517  4.74105613541354
 1 -4.67546005770577 -1.80610969186919  3.86676062656266
 1 -2.27565287898790 -3.08139765706571 -0.39542016581658
 1 -1.60138797119712 -1.67143625992599  0.63783190479048
 1 -0.80767620112011 -3.22619391499150  2.45015923462346
 1 -1.58770349194919 -4.67016414761476  1.61041283928393
 1 -1.54196431023102  3.55274479887989  3.96986289598960
 1 -2.59659064916492  4.94272147814782  4.67678393609361
 1 -3.10333332833283  2.99210020752075  4.96758176417642
 1 -5.20747381128113  6.57261145554556  2.21668699009901
 1 -10.19982911641164  3.09788044514451 -2.94734798649865
 1 -10.07101789968997  4.73535737983798 -2.66329662036204
 1 -9.67875767556756  4.17513592759276 -5.30402560486049
 1 -8.18367787718772  4.69310905630563 -4.50156011101110
 1 -8.57168701770177  2.98213757255726 -4.46786671147115
 1 -8.42658024762476 -0.75110565346535 -4.45093609190919
 1 -8.18090907390739 -2.40851425652565 -4.35109774677468
 1 -9.59329940944095 -1.62211903530353 -3.45602250895089
 1 -4.13918127552755 -4.01044587118712 -1.53881716861686
 1  2.44942607560756 -6.25172311531153  0.84083003990399
 1  2.17415815921592 -4.93450042614261 -0.63106655625563
 1  3.79954207650765 -4.28564784658466  1.97797280488049
 1  2.48578356505651 -3.36929255035504 -1.48030057105711
 1  3.67059167246725 -1.86478003730373 -1.63752622312231
 1  4.22881505550555 -3.55688941814181 -2.20190911681168
 1  4.90314035493549 -1.43967039103910  0.13380526402640
 1  5.14691321862186 -2.29606123852385  1.70469534983498
 1  7.08887641434143 -3.81449464156416  0.18873675767577
 1  6.35467562796280 -2.49800740974097 -1.11439203470347
 1  7.18693762506251 -0.71947527262726  0.56701394689469
 1  7.69546164906491 -2.13003958705871  1.70223460876088
 1  9.01998610791079 -1.93427170237024 -1.25263860196020
 1  9.03897841654165 -4.29158793019302 -0.20498429082908
 1  10.56292563336334 -3.54427862996300 -0.03079319281928
 1  9.52872193359336 -3.39409050055006  1.30840128282828
 1  9.14408355895590  0.05953167936794  0.24326969076908
 1  9.92001209870987 -1.07498403230323  1.58213775377538
 1  11.81392653395340 -2.02466249814982 -0.05526990019002
 1  11.21912799949995 -0.50514341924192 -1.29931126472647
 1  11.62502353585359  1.32004643384338  0.04206465126513
 1  12.52362718601860  0.13534472587259  1.45955423562356
 1  13.29163596429643  0.39492392469247 -1.52672491119112
 1  14.69785912421242 -0.65731394409441  0.70215589558956
 1  14.09322489348935 -1.62480149644965 -0.77752407390739
 1  15.30946193459346 -0.37102030023002 -0.97779467196720
 1  13.39940813501350  2.58321294039404 -0.09342112981298
 1  14.52692939323932  1.88968925812581  0.78664587848785
 1  15.95844750055005  1.43526213891389 -0.97382387308731
 1  14.99586516991699  2.53366727952795 -2.02940432013201
 1  15.32517392199220  4.65444082208221 -0.68110010811081
 1  16.35683845394540  3.53125976737674  0.49496939733973
 1  17.90682436383638  3.10581207240724 -1.27063614321432
 1  16.48836955735574  5.11606813571357 -3.21465382518252
 1  18.02708863236324  4.36964647794779 -3.31297590269027
 1  16.57811801200120  3.23744481448145 -3.21314934953495
 1  18.22674872207221  5.10722193969397  0.26262792699270
 1  18.81797932023202  5.63821797399740 -1.24583149754975
 1  17.29591114201420  6.01047055015502 -0.64672873417342
 1 -5.09399470087009 -7.90723015611561 -0.13490702840284
 1 -6.50658508880888 -6.96548363496350  0.42941644914491
 1 -5.12062023062306 -7.09091066666667  1.54186864346435
 8 -7.76399399099910  6.95577207800780 -0.31279906390639
 1 -9.01872016911691  6.33169881478148 -1.69806548934894

