%nproc=4
%Mem=4GB
# td=(NStates=1) iop(3/107=0140000000,3/108=0140000000) iop(3/107=0140000000,3/108=0140000000) CAM-B3LYP/6-31G(d,p) 

TD

0 1
12 -5.54340584718472  1.25451032533253  0.06906551175118
 6 -5.03815420262026 -2.13564202750275 -0.34359122592259
 6 -3.34056284538454  1.18916920172017  2.84323969726973
 6 -6.19405820152015  4.54185744994499  0.73679388818882
 6 -8.01544731183118  1.17683853455346 -2.51913958745875
 7 -4.35561981528153 -0.24609280108011  1.04357569636964
 6 -4.27497102460246 -1.60592429402940  0.64594694429443
 6 -3.16389951445145 -2.35825912871287  1.48555291899190
 6 -3.00637380838084 -1.38498138903890  2.65815237133713
 6 -3.57731515891589 -0.04536716441644  2.10806539173917
 6 -3.52329536893689 -1.78635207660766  4.05446814621462
 6 -1.95890108330833 -2.64415182448245  0.71170647614761
 6 -0.89732137563756 -3.42926050665067  1.61401498949895
 6  0.39406450695070 -3.74661850255025  0.75144333903390
 8  0.48237830213021 -3.27826514011401 -0.40388662286229
 8  1.07215406110611 -4.65676529382938  1.24826943424342
 7 -4.89482029832983  2.58910828772877  1.48595882758276
 6 -4.04582667246725  2.35155257695770  2.53842444574457
 6 -3.80201970567057  3.67288579077908  3.20957151335134
 6 -4.59036958965897  4.59294082238224  2.61337060836084
 6 -5.33683978817882  3.92818091329133  1.50709680198020
 6 -2.69271463456346  3.84801217701770  4.29494368376838
 6 -4.62442897349735  5.99840726122612  2.96317582238224
 8 -4.13892394039404  6.51486937493749  3.94816871677168
 7 -6.78034183408341  2.67813770957096 -0.78412006830683
 6 -6.94579729452945  3.97798741594159 -0.37731942064206
 6 -7.95004019041904  4.56834355915591 -1.17305141464146
 6 -8.39123857715771  3.60014694459446 -2.11679062346235
 6 -7.70625951645165  2.43630963976398 -1.85700164666467
 6 -8.43229622052205  6.01470137953795 -1.13137264606461
 6 -9.38346270957096  3.87567796599660 -3.17221185398540
 6 -8.82238369206921  3.96131427762776 -4.63729013301330
 7 -6.41971039003900 -0.12813783148315 -1.17431252325233
 6 -7.36872640224022 -0.06077214581458 -2.15141935263526
 6 -7.63104061126113 -1.41772347594759 -2.67440996359636
 6 -6.71749129792979 -2.22041161296130 -1.95187135283528
 6 -5.97190560596060 -1.39476304140414 -1.07606373677368
 6 -8.41531698949895 -1.70886101210121 -3.94125102130213
 6 -6.24628829592959 -3.56918250215022 -1.87618117321732
 8 -6.55027942344234 -4.52650034843484 -2.56924318941894
 6 -5.06098466056606 -3.58459651225122 -0.90532285208521
 6 -5.23500097749775 -4.64603004410441  0.15304897669767
 8 -5.62123789538954 -4.49307831593159  1.30227659105911
 8 -5.02306200440044 -5.89741093749375 -0.42215536013601
 6 -5.35237280148015 -7.00036188948895  0.35236706650665
 6  2.48115908910891 -4.95913703390339  0.55937989238924
 6  3.45127966296630 -3.98449861076108  1.07562546234623
 6  4.09389878007801 -3.11065393549355  0.16498013301330
 6  3.66637097599760 -2.95031997329733 -1.23475297979798
 6  5.15378180398040 -2.24998004560456  0.63435723452345
 6  6.53022789408941 -2.73103602880288  0.02191365876588
 6  7.67862318591859 -1.91110046554655  0.64065975647565
 6  9.03429425072507 -2.08948378197820 -0.06903468596860
 6  9.59955633733373 -3.57246788718872  0.08033457575758
 6  9.97889846894689 -0.88750898829883  0.41996451195119
 6  11.32325962836284 -0.84775438233823 -0.39559832603260
 6  12.04833252185218  0.31871649914991  0.12163901150115
 6  13.51714417021702  0.43931880178018 -0.64943970717072
 6  14.31236953595360 -0.88048745134513 -0.49090324122412
 6  14.19322526212621  1.72019819141914 -0.19458871367137
 6  15.33411760216022  2.09374740294029 -1.03328832383238
 6  16.03415600000000  3.39168392119212 -0.56049666286629
 6  17.34344959405941  3.86454429602960 -1.37442137733773
 6  17.18202079177918  4.13165805750575 -2.81686391059106
 6  17.95907531363136  5.09480474577458 -0.66775623452345
 1 -2.66019174197420  1.18230250565056  3.71286175457546
 1 -6.42308028682868  5.68722410281028  0.93961295299530
 1 -8.80610101730173  1.29999030193019 -3.22887836663666
 1 -3.85560662546255 -3.27254256965697  1.65083314411441
 1 -2.03925104900490 -1.20554821642164  2.90368164426443
 1 -3.11184096319632 -2.68817197839784  4.20774431843184
 1 -3.12669346204620 -0.75112501690169  4.70075210501050
 1 -4.51740425212521 -2.03399248014801  3.99628357885789
 1 -2.19389470317032 -3.33606312361236 -0.12168279207921
 1 -1.42949078147815 -1.68404752105211  0.40789891149115
 1 -0.69022445594559 -2.98817011261126  2.48806302500250
 1 -1.51210593219322 -4.38651578277828  1.75905770377038
 1 -1.66548666246625  3.53143266766677  3.95480138983898
 1 -2.67733872397240  4.86820402640264  4.49361561926193
 1 -2.92661565656566  3.35975697319732  5.41735674167417
 1 -5.15583864776478  6.52130632503250  2.14963028442844
 1 -10.09414854835484  3.02437309440944 -3.46921017271727
 1 -9.88976977487749  4.66022986708671 -3.10434072477248
 1 -9.58059785958596  3.95023343734373 -5.43029823212321
 1 -8.25499500890089  4.83433317871787 -4.84439439443944
 1 -8.49094894389439  2.94843420222022 -4.78064798959896
 1 -7.95407299689969 -0.84147469036904 -4.49448044634463
 1 -8.39388037103710 -2.58220162526253 -4.38676131313131
 1 -9.33225330483048 -1.32194901830183 -3.86139304600460
 1 -4.22614997239724 -3.91483631023102 -1.43598688558856
 1  2.73058419141914 -5.90674861786179  1.05007096399640
 1  2.15582632603260 -4.83260023612361 -0.38259170877088
 1  3.79208133043304 -4.02747202900290  2.13847885548555
 1  2.63706869356936 -2.93244886598660 -1.68075061606161
 1  3.93448806210621 -1.97819137843784 -1.69533200370037
 1  4.22119429342934 -3.43801753095310 -2.14665359125913
 1  4.93230327122712 -1.44951137513751  0.21203308680868
 1  5.10180870817082 -2.12799443184318  1.68630351065107
 1  6.55725325202520 -3.95900909300930  0.39438732273227
 1  6.57663782418242 -2.75254286328633 -1.03869446494649
 1  7.39870880218022 -0.76772009710971  0.72186943244324
 1  7.92489459235924 -2.43226981008101  1.67977236253625
 1  8.91349545884589 -1.91300957615762 -1.08040137823782
 1  8.92511703040304 -4.28563733513351 -0.59813360576058
 1  10.73950329112911 -3.43507770987099 -0.16548666216622
 1  9.59751881328133 -3.78565965746575  1.14017446014601
 1  9.38855800640064  0.15245097129713  0.29265462926293
 1  9.86966706420642 -1.04472100600060  1.59800934093409
 1  11.80490563186319 -1.89799983188319 -0.24583895709571
 1  10.94214030073007 -0.72354525942594 -1.55330666426643
 1  11.40765179867987  1.14189861906191 -0.11108066326633
 1  12.19499432273227  0.30043123452345  1.10361864206421
 1  13.33257005770577  0.65885031733173 -1.68256049474948
 1  14.47840717901790 -1.39316752945295  0.51509718971897
 1  13.93164873587359 -1.84633364966497 -1.01003732523252
 1  15.24958594699470 -0.59776297449745 -0.85814270677068
 1  13.42201039523952  2.43852847194719 -0.25311709940994
 1  14.41028772907291  1.60302059125913  0.82746996089609
 1  16.16236789258926  1.25641425412541 -1.09173566426643
 1  14.99902548594860  2.28736264906491 -2.09248062776278
 1  15.25839724432443  4.19208458645864 -0.47672967106711
 1  16.55660843094310  3.26377301870187  0.35337523792379
 1  18.07548122952295  3.05138662986299 -1.00581966156616
 1  16.46221694209421  4.78106463536354 -2.95242760256026
 1  18.18236415991599  4.60860037333734 -3.15148975407541
 1  16.82160236043605  3.29677074707471 -3.57789582418242
 1  17.84203025022502  4.71788300580058  0.49741140534053
 1  18.93154067636764  5.35697985018502 -1.01652856725673
 1  17.21511306220622  5.99270877397740 -0.84852891419142
 1 -4.72378768016802 -7.88492792589259 -0.11488502620262
 1 -6.54416884718472 -7.46300338693869  0.34321782928293
 1 -4.99723789238924 -6.80832240784078  1.42149660626063
 8 -7.85908349995000  6.85795229602960 -0.40020780478048
 1 -9.19351764886489  6.25462110701070 -1.94890057285729

