%nproc=4
%Mem=4GB
# td=(NStates=1) iop(3/107=0140000000,3/108=0140000000) iop(3/107=0140000000,3/108=0140000000) CAM-B3LYP/6-31G(d,p) 

TD

0 1
12 -5.60298180478048  1.21384625892589  0.17961656685669
 6 -5.04686507370737 -2.04777324062406 -0.26483335013501
 6 -3.44205299439944  1.18902918771877  2.84489986328633
 6 -6.26083487918792  4.48335159935994  0.68995920472047
 6 -8.07756352345235  1.16654750545055 -2.39943761726173
 7 -4.54436869016902 -0.33829202100210  1.15182652145215
 6 -4.34461798929893 -1.60438414001400  0.77545989558956
 6 -3.27693081758176 -2.38777208000800  1.49251361506151
 6 -2.94616778777878 -1.38633152405241  2.63143970007001
 6 -3.67577500490049 -0.03749637733773  2.19014359955996
 6 -3.62060509990999 -1.74160760216022  3.98910160956096
 6 -2.10832602580258 -2.80054746404640  0.71426673217322
 6 -1.02164380788079 -3.68044562516252  1.36785037303730
 6  0.25424052455246 -3.87321116181618  0.63485167986799
 8  0.37947801210121 -3.36013332693269 -0.52056829102910
 8  0.98089493519352 -4.70672028932893  1.25202981028103
 7 -4.90248106440644  2.57185656255626  1.45861609330933
 6 -4.06200829062906  2.30483790549055  2.51458206150615
 6 -3.76672617631763  3.57133563576358  3.18153871007101
 6 -4.58163871657166  4.57635916421642  2.65388465976598
 6 -5.27867397159716  3.93578167336734  1.48645473777378
 6 -2.79334469756976  3.64182155795580  4.24852904230423
 6 -4.58272480308031  6.00866828732873  2.98806831163116
 8 -3.90887093509351  6.50664855285529  3.77011091099110
 7 -6.92088588848885  2.60399029482948 -0.71218287458746
 6 -6.97159987478748  3.94104372157216 -0.40089177787779
 6 -7.88991417781778  4.65071179597960 -1.18653276277628
 6 -8.44960441374137  3.66253318321832 -2.05519446384638
 6 -7.75576446694669  2.46402241104110 -1.78416436293629
 6 -8.17373036393639  6.03444335373537 -1.27720722952295
 6 -9.52202656595660  3.85616601480148 -3.23725835863586
 6 -8.74425587928793  4.20906905310531 -4.54150055405541
 7 -6.38543696269627 -0.15595061276128 -1.09547463946395
 6 -7.31975150475048 -0.04898096669667 -2.17031124182418
 6 -7.51545905310531 -1.32898460206021 -2.71195371797180
 6 -6.69305885468547 -2.17589716151615 -2.03416958265827
 6 -5.95493390879088 -1.49231279637964 -1.06734286468647
 6 -8.49969542734273 -1.74188431443144 -3.74565146134613
 6 -6.16651031813181 -3.50188577247725 -2.04052760786079
 8 -6.46061045654565 -4.47507520592059 -2.77535380048005
 6 -5.03408197029703 -3.56592464506451 -0.95673799359936
 6 -5.37175465286529 -4.51453689478948  0.17531120292029
 8 -5.81083685528553 -4.29350835893589  1.27303366676668
 8 -5.16853655185519 -5.77972916931693 -0.27625076967697
 6 -5.45865342954295 -6.84306615991599  0.68982081188119
 6  2.30321129432943 -5.12120324052405  0.53883783818382
 6  3.39640417541754 -4.13857401830183  0.84843274307431
 6  4.07855724592459 -3.28167103720372  0.14521815681568
 6  3.79796413531353 -3.09610455175518 -1.29475898039804
 6  5.24428085388539 -2.48909395699570  0.74152795159516
 6  6.62541741304130 -2.73100602580258  0.00951241864186
 6  7.78986431003100 -1.87651700720072  0.67699338983898
 6  9.08604942624262 -2.03567840144014  0.05905812331233
 6  9.67453383508351 -3.42445308570857  0.28548509080908
 6  10.13953453255326 -0.92808304570457  0.56220873637364
 6  11.43209051145115 -0.97163677057706 -0.25474424062406
 6  12.29586727532753  0.26214084158416  0.13930077767777
 6  13.57876033183318  0.49153402330233 -0.74729949314931
 6  14.56929522852285 -0.73863326592659 -0.56090024092409
 6  14.21865780538054  1.72666883848385 -0.31918117291729
 6  15.56632082248225  2.12854088228823 -1.01181617661766
 6  16.01917450185018  3.52622737553755 -0.67080769396940
 6  17.36240148924892  4.13096093769377 -1.33853778897890
 6  17.21196378607861  4.15511040274027 -2.85441766596660
 6  17.88939834593459  5.36435170047005 -0.67709716861686
 1 -2.56130185298530  1.22066634203420  3.58484895329533
 1 -6.58497647644765  5.54185956635664  0.79456844854485
 1 -8.77885829302930  1.04158446134613 -3.30590606940694
 1 -3.52153321812181 -3.28558387378738  1.92849090989099
 1 -1.85848297219722 -1.28059572117212  2.70880215631563
 1 -2.98226800590059 -2.55952911411141  4.47762130613061
 1 -3.39622041474147 -0.79372927732773  4.46287831763176
 1 -4.62890540224022 -1.97133621452145  4.04302825332533
 1 -2.43020833453345 -3.22118163546355 -0.15790641444144
 1 -1.54570240264026 -1.92026114241424  0.27900602220222
 1 -0.79045447894790 -3.15098639423942  2.32514673337334
 1 -1.44429915151515 -4.59979711091109  1.49661145914591
 1 -1.75630574437444  3.42550207460746  3.85703161286129
 1 -2.89414040414041  4.61209841584158  4.65872212991299
 1 -2.83660665566557  2.78086908440844  5.06476148214821
 1 -5.14746781068107  6.66834102850285  2.31912723412341
 1 -10.19108824232423  3.01190184728473 -3.13216646834683
 1 -10.13511430933094  4.62165600970097 -2.93250354105411
 1 -9.46866666646665  4.12149056305631 -5.32947815011501
 1 -8.21628113751375  5.14118386378638 -4.48980893589359
 1 -7.82939278827883  3.57754711351135 -4.91113103790379
 1 -8.13993158275828 -1.15131567446745 -4.86287728602860
 1 -8.45708669166917 -2.79694309940994 -3.69876251325132
 1 -9.51159123862386 -1.21797862126213 -3.66734364106411
 1 -3.97260461786179 -3.77084191079108 -1.38623191009101
 1  2.40101123412341 -6.24582252525252  0.91865782268227
 1  2.11409215261526 -5.24558153425343 -0.58014146374637
 1  3.59117123942394 -4.10357963976398  1.81184619221922
 1  2.82352733943394 -3.26709233033303 -1.72732527352735
 1  3.67061167446745 -1.98294185348535 -1.36361883238324
 1  4.54368654265426 -3.71384511371137 -1.91467039293929
 1  4.86160620152015 -1.53708013201320  0.45375725922592
 1  5.31374990229023 -2.62357398979898  1.83849873017302
 1  6.76911443814381 -3.72734592669267  0.22035991999200
 1  6.63406356675668 -2.44710231923192 -0.98892948844884
 1  7.44053298459846 -0.90611393649365  0.83746099159916
 1  8.04847695059506 -2.18303488658866  1.71679606490649
 1  9.01556566586659 -1.95355363056306 -1.34724806290629
 1  9.02686720542054 -4.08915768716872  0.09780598819882
 1  10.60701004180418 -3.38933313541354 -0.37697781128113
 1  9.83185224662466 -3.76928802030203  1.17794823752375
 1  9.66665581618162  0.03596932313231  0.23199856365637
 1  10.34823492099210 -1.05972250615062  1.64025356535654
 1  11.96638177947795 -1.83561359325933  0.12392801960196
 1  11.23588967566757 -1.05902880778078 -1.31206253985399
 1  11.54118515201520  1.13216764596460 -0.03140269546955
 1  12.57594241754175  0.23591478287829  1.13789206940694
 1  13.18714551525152  0.61378581088109 -1.77338957765777
 1  14.72399173747375 -0.95516372907291  0.60634631463146
 1  14.01567713871387 -1.62185120142014 -0.94670099159916
 1  15.41538252665267 -0.63445664386439 -1.09396628912891
 1  13.51249944414442  2.64979959905991 -0.45088687638764
 1  14.50410711101110  1.78871916111611  0.84865207910791
 1  16.45832748854885  1.36503511621162 -1.07689418011801
 1  15.45560114351435  2.27326123892389 -2.09072045174517
 1  15.19895129972997  4.29842522052205 -0.57951995009501
 1  16.37213998409841  3.44517115851585  0.48823872427243
 1  18.12951663306331  3.27152864406441 -1.20047912751275
 1  16.04158487888789  4.35488201710171 -3.18221058085809
 1  17.94761068456846  4.83160267356736 -3.42106671177118
 1  17.34983518371837  3.02216328632863 -3.29322735733573
 1  18.17169321652165  5.18372959045905  0.44251591579158
 1  18.66813433573357  5.76004015621562 -1.19845676007601
 1  17.06322787368737  6.16279578267827 -0.75095915721572
 1 -5.28114341574157 -7.77209664276428  0.05372183448345
 1 -6.62832726302630 -6.90411749834984  0.78889239673967
 1 -5.02739090769077 -6.76948852445244  1.68208266486649
 8 -7.84000159175918  6.91913841464146 -0.55046283028303
 1 -8.83145144224422  6.26394203910391 -2.06586226902690

