%nproc=4
%Mem=4GB
# td=(NStates=1) iop(3/107=0140000000,3/108=0140000000) iop(3/107=0140000000,3/108=0140000000) CAM-B3LYP/6-31G(d,p) 

TD

0 1
12 -5.70115162176218  1.26777165146515  0.20784939013901
 6 -5.09015940314031 -2.05960442374237 -0.35617248404840
 6 -3.38793758285829  1.08092837763776  2.75484085738574
 6 -6.17424622032203  4.44885815001500  0.54957516631663
 6 -8.08033380048005  1.13959481018102 -2.35540321382138
 7 -4.49992424572457 -0.24337252905291  1.12798413721372
 6 -4.33509703720372 -1.67437113871387  0.73477582718272
 6 -3.16594971947195 -2.31421472427243  1.44920928462846
 6 -2.86871004200420 -1.29292218311831  2.56357291339134
 6 -3.55321274867487 -0.05015764346435  2.17271185638564
 6 -3.40886392579258 -1.66886032743274  4.00622332173217
 6 -1.95682087528753 -2.67082449174918  0.50496580208021
 6 -0.90950259375938 -3.37597517811781  1.46784037203720
 6  0.25648074857486 -3.87974181488149  0.53553174787479
 8  0.45291535583558 -3.47295460906091 -0.56545277947795
 8  1.04816166186619 -4.82568218551855  1.08250285758576
 7 -4.90319113541354  2.56151552845285  1.47714794649465
 6 -3.92340443024302  2.39634705640564  2.43186378967897
 6 -3.64649415311531  3.67380588278828  3.08805936213621
 6 -4.40188074077408  4.60625215351535  2.45329460076008
 6 -5.17679378357836  3.84267236243624  1.46277236953695
 6 -2.60891625472547  3.84164153995399  4.14549873927393
 6 -4.42586911751175  6.04591201170117  2.76361586638664
 8 -3.86894694269427  6.57319520752075  3.74654855475548
 7 -6.88255205510551  2.63321321712171 -0.67844950125012
 6 -6.91335405020502  3.94301391859186 -0.50778246694669
 6 -7.95626081248125  4.63263998879888 -1.17851196069607
 6 -8.53801325462546  3.63724065396540 -1.90903984838484
 6 -7.86267515801580  2.36822283108311 -1.66610255675568
 6 -8.42479547044704  6.00797070647065 -1.01531103990399
 6 -9.56238060136014  3.75413581178118 -3.03891852465246
 6 -8.79582103580358  4.08950709690969 -4.35822222622262
 7 -6.47867628662866 -0.12583760146015 -1.09516460846085
 6 -7.43210273987399 -0.06154222282228 -2.11078528922892
 6 -7.56525403260326 -1.31787349094910 -2.68540106270627
 6 -6.65230477927793 -2.15146471827183 -2.07863402910291
 6 -6.02235065046505 -1.35108867396740 -1.10343647404740
 6 -8.49162462026202 -1.70824095009501 -3.87493438963896
 6 -6.19382304940494 -3.52983856775678 -1.98908246334634
 8 -6.45306970247025 -4.47754545294529 -2.60423668876888
 6 -5.04376293839384 -3.48362641524152 -0.88630094989499
 6 -5.37596507390739 -4.59617505860586  0.14327799959996
 8 -5.97541331293129 -4.50452946104611  1.20182654605461
 8 -5.08120781898190 -5.82029322572257 -0.42177532213221
 6 -5.54210177437744 -6.93803565686569  0.50056188598860
 6  2.32043301650165 -5.19256037623762  0.44624857925793
 6  3.32604713971397 -4.18780894179418  0.88270617041704
 6  4.04668405860586 -3.35748861896190  0.20128376337634
 6  3.83347768666867 -3.23338828012801 -1.33759326382638
 6  5.15190161596160 -2.44519956755676  0.63086688548855
 6  6.58499337063706 -2.64581750695070  0.06404787218722
 6  7.70643596719672 -1.90986034153415  0.75177086758676
 6  9.11637245854585 -2.01130596419642  0.16590880838084
 6  9.57649403110311 -3.48399904030403  0.44846138843884
 6  10.04720529962996 -0.94217445484548  0.57170968646865
 6  11.38759606200620 -0.91751135803580 -0.24254302050205
 6  12.19824751335134  0.32109673717372  0.20748759635964
 6  13.57061951775177  0.55524039393939 -0.48313307650765
 6  14.43843214221422 -0.66036543914391 -0.50042419331933
 6  14.34178011761176  1.86040221182118 -0.12785204000400
 6  15.52849704010401  2.14427245544554 -0.96883187818782
 6  16.08794137853785  3.57524227702770 -0.59810042324232
 6  17.31284653375338  3.90186802840284 -1.29332326752675
 6  17.06632922262226  4.13788868056806 -2.93174539873987
 6  17.92115152125212  5.23506877217722 -0.85933539243924
 1 -2.58240396319632  1.06063033843384  3.57483795219522
 1 -6.18879685848585  5.53066844724472  0.76599559125913
 1 -8.91819222642264  1.04870517341734 -3.07233271207121
 1 -3.51273233803380 -3.35252056745675  1.91964002480248
 1 -1.77236436033603 -1.16523418501850  2.58970024612461
 1 -2.80328010711071 -2.52538569976998  4.29408295229523
 1 -3.26305709840984 -0.89505941034103  4.72477450725073
 1 -4.52791530323032 -1.99743882478248  4.04026797729773
 1 -2.17764307800780 -3.28932845014501 -0.23118374217422
 1 -1.65491332373237 -1.72201131743174  0.05132325392539
 1 -0.51807724122412 -2.95705700130013  2.45325954465447
 1 -1.20701542314231 -4.34971210241024  1.99360115811581
 1 -1.70514062786279  3.56155567996800  3.84823073277328
 1 -2.82190318041804  4.79899710571057  4.52926918461846
 1 -2.87564055905591  3.30555155265527  5.05878088408841
 1 -5.05918898279828  6.73382757715772  1.97731305270527
 1 -10.02399153265326  2.89063972107211 -3.12313556525653
 1 -10.24949574747475  4.49741358545855 -2.80285057575758
 1 -9.37316711651165  4.06144455845585 -5.22708791109111
 1 -8.35947545694570  5.20391013641364 -4.47515747074707
 1 -8.11947179617962  3.27332669146915 -4.52130205500550
 1 -7.96929451905191 -0.97984852775278 -4.63325432373237
 1 -8.52047303030303 -2.81043444854485 -4.10466310331033
 1 -9.56169624912491 -1.23549037243724 -3.59774668136814
 1 -4.15490284768477 -3.96386121272127 -1.35345863276328
 1  2.50843197619762 -6.15621356435644  0.96361231813181
 1  2.29132987638764 -5.08486546264626 -0.69213266286629
 1  3.62074419671967 -4.47819710151015  2.06698170577058
 1  2.74088907560756 -3.35658127922792 -1.52424496549655
 1  3.76467108040804 -2.20237379667967 -1.73603607410741
 1  4.46197837183718 -3.91533526272627 -2.01760068596860
 1  4.59776981788179 -1.33968039203920  0.58443032653265
 1  5.34512303960396 -2.73178481088109  1.82206708700870
 1  6.83380090679068 -3.84182737483748  0.49758764276428
 1  6.69636979737974 -2.58333594259426 -1.00614120962096
 1  7.51064999629963 -0.83183650875088  0.70534778027803
 1  7.75362746564656 -1.99003558665867  1.78249263456346
 1  8.91183529282928 -1.92173044824482 -0.94854819291929
 1  9.09890440914091 -4.41439021042104 -0.21176496889689
 1  10.76990633143314 -3.68403260536054  0.20857074357436
 1  9.67241630303030 -3.59695078657866  1.57146758945895
 1  9.47828697929793 -0.00870514431443  0.57249261306131
 1  10.24283438093809 -0.98147468136814  1.65350489048905
 1  12.04469961126112 -1.66966699859986  0.01139676647665
 1  11.19008509520952 -0.85804870977098 -1.22572390599060
 1  11.49724075757576  1.27754218341834  0.28496894169417
 1  12.34956978027803  0.44382557395740  1.40713899409941
 1  13.23390019071907  0.65749018131813 -1.50157239593959
 1  14.97474681298130 -0.57794600730073  0.38704438443844
 1  14.00046561756175 -1.44710372667267 -0.76211253275328
 1  15.21204219261926 -0.27696089428943 -1.33564045654565
 1  13.51190938513851  2.54833945304530 -0.58742052975298
 1  14.63221992229223  1.69475976517652  0.97063427732773
 1  16.42780443624362  1.44636324902490 -0.78569506020602
 1  15.20399598299830  1.74133804660466 -1.91140251995199
 1  15.07061846644664  4.08292367036704 -0.85631762986299
 1  16.04743751385138  3.70284692609261  0.41721162156216
 1  18.06371005240524  3.07592908410841 -1.32244132373237
 1  16.17086780718072  4.79501603050305 -2.89121148094809
 1  17.96570249374938  4.63017253055305 -3.45053965906591
 1  16.78540874107411  3.23333440344034 -3.39114714931493
 1  18.13053910111011  5.30534175167517  0.14350601480148
 1  18.99550707300730  5.58028218041804 -1.27479439383938
 1  16.97798934983498  5.88164766786679 -1.05116917821782
 1 -5.44855015641564 -7.75033446654665 -0.30054359205921
 1 -6.62889732003200 -6.60233732033203  0.79130263776378
 1 -5.19328749734974 -6.89834140974097  1.42874733133313
 8 -7.80248784038404  6.87882438323832 -0.41182896689669
 1 -9.42454075117512  6.11783742864286 -1.69392507530753

