%nproc=4
%Mem=2GB
# td=(NStates=1) iop(3/107=0140000000,3/108=0140000000) iop(3/107=0140000000,3/108=0140000000) CAM-B3LYP/6-31G(d,p) 

TD

0 1
12 -6.89220179227923  0.63710285438544  0.09000662016202
 6 -4.56825393189319 -2.14731315311531  0.37206748374837
 6 -4.16169798519852  2.68588022112211  0.98277115871587
 6 -9.01347405210521  3.08502252635263 -0.32253175487549
 6 -9.28437653525353 -1.78732176177618 -0.83033309200920
 7 -4.75711078297830  0.32819221692169  0.53190222232223
 6 -4.03229049464947 -0.93826353315332  0.66695725112511
 6 -2.55724914351435 -0.63620537973797  1.08942100440044
 6 -2.50634059985999  0.94949509830983  1.25202736523652
 6 -3.88389465236524  1.38146823202320  1.07636241094109
 6 -2.30605689138914  1.33938573447345  2.80347491029103
 6 -1.61058980738074 -0.95963852725273  0.05881720802080
 6 -0.13237135543554 -1.15856756335634  0.52579165266527
 6  0.91304238343834 -1.27680491739174 -0.67001517531753
 8  0.82965303340334 -0.76972958545855 -1.71667265746575
 8  2.00520080668067 -1.98717901650165 -0.25816073857386
 7 -6.68785052725273  2.65533590359036  0.45454920282028
 6 -5.42384294519452  3.29858850205021  0.61211750795079
 6 -5.84873908910891  4.69059874467447  0.57163203180318
 6 -7.06943765716572  4.99734582508251  0.42498908220822
 6 -7.71090279417942  3.64823363176318  0.11405623702370
 6 -4.85723064336434  5.69378680918092  0.88750641864186
 6 -7.89701126242624  6.20102702280228  0.20256978067807
 8 -7.59411332753275  7.28673028962896  0.56326418321832
 7 -8.80090364386439  0.70013087228723 -0.53690633973397
 6 -9.54955862826283  1.84689942524252 -0.53346439873987
 6 -10.90947757805781  1.68840871197120 -0.85514129532953
 6 -10.84938929642964  0.18562946734674 -1.09503035853585
 6 -9.61967363066307 -0.28569673287329 -0.86423850055005
 6 -12.04524129942994  2.43490968406841 -0.95543019381938
 6 -12.09523264376438 -0.70289385168517 -1.40788892259226
 6 -12.35313217531753 -0.75634779998000 -2.97470026472647
 7 -6.96536301920192 -1.36703926522652 -0.30275291979198
 6 -8.00640330193019 -2.25044504120412 -0.66443964196420
 6 -7.61818940404040 -3.69428675107511 -0.54160517061706
 6 -6.32442806400640 -3.76944610551055 -0.17715597619762
 6 -5.97288357705771 -2.24621343584358  0.00993717801780
 6 -8.39476800030003 -4.66696407420742 -1.13196601250125
 6 -5.04944114861486 -4.42843864196420  0.12588061376138
 8 -4.88970071877188 -5.59382992129213 -0.06586608000800
 6 -3.79590331573157 -3.40268082728273  0.51382602980298
 6 -3.44385789668967 -3.66163233873387  1.90170988398840
 8 -4.04194943504351 -4.14452118691869  2.83952262206221
 8 -1.98619029392939 -3.60333663896390  2.03915385458546
 6 -1.37377589968997 -3.82526761686169  3.35520994619462
 6  3.11240313311331 -2.20023520042004 -1.22495373947395
 6  4.20691445884589 -1.44880188128813 -0.67085261756176
 6  5.13171392679268 -0.92938981038104 -1.57432363396340
 6  5.18029201300130 -1.33760689538954 -2.93665064726473
 6  6.30026385098510 -0.00577823072307 -1.17651420992099
 6  7.60543923792379 -0.85697147924792 -0.66101283858386
 6  8.54915747604760  0.30007564216422 -0.26334481498150
 6  9.89619270867087 -0.27949486978698 -0.01005931163116
 6  9.83351086738674 -1.09467828252825  1.42573694249425
 6  10.99653198319832  0.75915076927693  0.37735257365737
 6  12.30439571007101  0.08312962016202  0.33288159935994
 6  13.38054959755976  1.11926920162016  0.15978887728773
 6  14.80304663986399  0.37300057815782  0.42295695779578
 6  14.77064205230523 -0.32068434893489  1.81177110111011
 6  16.03300292869287  1.36866176817682  0.03543674897490
 6  17.30609008710871  0.87578280268027  0.06667979407941
 6  18.40522006940694  1.82299949114911 -0.28749889668967
 6  19.81056325742574  1.05308380318032 -0.68913899759976
 6  19.52925272657266  0.11308673897390 -1.93782957415742
 6  21.17382455135514  1.93541495949595 -0.86226132203220
 1 -3.20414105240524  3.29860111111111  0.96364576627663
 1 -10.12596657915791  3.69111819691969 -0.73053668756876
 1 -10.00154264586459 -2.65298569786979 -0.86997982388239
 1 -2.13382589938994 -1.20460807860786  2.21356140444044
 1 -1.95087442604260  1.38666914311431  0.81504795819582
 1 -1.45853723742374  0.86948526292629  3.12921363246325
 1 -2.09200737463746  2.25758433483348  3.10170628842884
 1 -3.13658599109911  1.11796968226823  3.51469733883388
 1 -1.92112113241324 -2.12722399539954 -0.36659444624462
 1 -1.92649781878188 -0.24632610551055 -0.78791858265827
 1  0.47576557485748 -0.32140357365737  1.19307517271727
 1  0.05723200340034 -2.40595692949295  0.86943717581758
 1 -4.05017954835484  5.26820464836484  0.41353631133113
 1 -5.22804308490849  6.59196187208721  0.92142904900490
 1 -4.55650667886789  5.90116907790779  1.81854962726273
 1 -8.79979299339934  6.01059616881688 -0.07459383518352
 1 -11.99308886248625 -1.70765163266327 -0.70776520372037
 1 -13.05315153015302 -0.61567516771677 -0.81871950835084
 1 -13.27052487558756 -1.45622773817382 -2.89302641974197
 1 -12.30460742454246  0.09553697519752 -3.60481265076508
 1 -11.46457328172817 -1.43595691269127 -3.20025663306331
 1 -9.04240342364236 -4.41411796739674 -2.12235446344634
 1 -7.88909412401240 -5.54488450105011 -1.38832848474847
 1 -9.42972025202520 -4.82140410161016 -0.61931732223222
 1 -3.14394397579758 -3.77956168106811 -0.33763207000700
 1  3.27847946334633 -3.26657393119312 -0.78970468756876
 1  2.77948223702370 -1.90009592459246 -2.26869710501050
 1  4.68442577027703 -1.30880362876288  0.50516411801180
 1  4.41500455745575 -0.38789226172617 -3.47776789178918
 1  5.99262284068407 -1.05462413781378 -3.47272849674968
 1  4.74597842524252 -2.33178579287929 -3.23094727852785
 1  6.72828325022502  0.43976931433143 -2.05230784798480
 1  6.04846995639564  1.03048859665967 -0.16894115751575
 1  7.11176235513551 -1.33017121422142  0.17884960656066
 1  7.97717311571157 -1.74855364566457 -1.42990246614661
 1  8.69086121752175  0.87763835863586 -1.26814960026003
 1  8.23060155825583  1.01043623182318  0.57392310071007
 1  9.90386283338334 -0.78360580428043 -1.11460861846185
 1  8.94263650795079 -1.95839465516552  1.32486084688469
 1  10.63378944834484 -1.50079396059606  1.38884077547755
 1  9.53031624322432 -0.58830005240524  2.31745305040504
 1  10.81101473927393  1.71097385728573 -0.20648782038204
 1  10.69464921152115  1.01923079867987  1.28848272857286
 1  12.24618216041604 -0.40824326382638  1.45521920522052
 1  12.40004215821582 -0.56341456205620 -0.61628462596260
 1  13.27004187418742  1.60457000200020 -1.05666457105711
 1  13.25342738753875  2.13374762606261  1.07658344774477
 1  14.99878130393039 -0.33402091809181 -0.54003219441944
 1  14.28232813271327  0.10183057855786  2.62438521152115
 1  14.28416569006901 -1.18293596549655  1.64819231733173
 1  16.05381241434143 -0.67216079917992  2.16927340504050
 1  15.96066720162016  1.90937093049305 -1.07336731143114
 1  16.04511854445445  2.39928946444644  0.50923924712471
 1  17.53430474557456  0.17910108070807  0.99444963166317
 1  17.20281780598060  0.20389855905591 -0.68007938533853
 1  17.97962296939694  2.26582313011301 -0.85083807210721
 1  18.71243123922392  2.23580748764877  0.67521419191919
 1  20.29895245644565  0.31771461766177  0.27181053185319
 1  19.20747906590659  0.46435148474847 -2.65990811601160
 1  20.49409369936994 -0.37635943774377 -2.29927406080608
 1  18.85036776377638 -0.54738245664566 -1.75693376807681
 1  21.60644742334233  2.46855643474348  0.08387914151415
 1  21.99631737203720  1.20248683138314 -1.34530724572457
 1  21.00555720862086  2.87162464966497 -1.44483928022802
 1 -0.15832145724572 -4.35129787918792  2.96703505150515
 1 -1.65269495049505 -4.79745701940194  4.06924756135614
 1 -1.22064607790779 -2.67144562166217  4.08448260146015
 8 -11.92382075637564  3.82766756595660 -0.77489930363036
 1 -13.34640515201520  2.01903314341434 -1.01006161116112

