%nproc=4
%Mem=2GB
# td=(NStates=1) iop(3/107=0140000000,3/108=0140000000) iop(3/107=0140000000,3/108=0140000000) CAM-B3LYP/6-31G(d,p) 

TD

0 1
12 -6.85293786588659  0.51133027712771  0.07578519801980
 6 -4.62390949744974 -2.27717613941394  0.51919219621962
 6 -3.99121093649365  2.66090772387239  0.85961884348435
 6 -8.72954565926593  3.25029905400540 -0.32835233693369
 6 -9.36513461106111 -1.56006903650365 -0.73125318401840
 7 -4.82755782768277  0.20762015971597  0.57342637473747
 6 -4.09123638923892 -0.97048675547555  0.72951350675068
 6 -2.53272669126913 -0.86972873207321  1.10170223252325
 6 -2.44920488628863  0.77603775257526  1.23534569706971
 6 -3.83985024792479  1.14694477967797  0.80570534523452
 6 -1.98883516921692  1.15061685758576  2.58774333713371
 6 -1.57459620802080 -1.49838240164016  0.04321564786479
 6 -0.13707182548255 -1.35154686128613  0.53445251875187
 6  0.65099617881788 -1.61958919581958 -0.68893706750675
 8  0.35533560166017 -1.43120573307331 -1.85604659485949
 8  2.02936322292229 -2.05452575117512 -0.26456137863786
 7 -6.49754149634964  2.51610198019802  0.23744749264926
 6 -5.31376193709371  3.14275291849185  0.50731702790279
 6 -5.47140135533553  4.65764544934493  0.63088795739574
 6 -6.79848056145615  4.93228931943194  0.33829041234123
 6 -7.50334203810381  3.55358416681668  0.04759959135914
 6 -4.56135105540554  5.61659909040904  0.93225089308931
 6 -7.34402596389639  6.24792171227123  0.10448997269727
 8 -6.84240815701570  7.31944356095610  0.19125698249825
 7 -8.71445499899990  0.75067592679268 -0.38119076817682
 6 -9.39595326772677  2.04922965826583 -0.40808186048605
 6 -10.83349998029803  1.91188105920592 -0.76695247644764
 6 -11.08761311881188  0.48865977037704 -0.87310816631663
 6 -9.75410707400740 -0.16614477767777 -0.65846792349235
 6 -11.84950172547255  2.87122331543154 -0.92381703250325
 6 -12.38444156465646 -0.37850141244124 -1.19186732043204
 6 -12.58290515261526 -0.34532669786979 -2.68246104080408
 7 -6.94768125102510 -1.34799736103610 -0.18157080158016
 6 -8.19542220382038 -2.08992898959896 -0.54687788578858
 6 -7.85219280438044 -3.57938526092609 -0.40427143724372
 6 -6.50808642984298 -3.59966912781278 -0.08791705230523
 6 -5.93905019371937 -2.25527434193419  0.00262644694469
 6 -8.95801432493249 -4.71888926672667 -0.69793260916092
 6 -5.42014821932193 -4.63645944404441  0.21516954265427
 8 -5.37276902560256 -5.73709424772477  0.20176068266827
 6 -4.14941866726673 -3.69486004520452  0.48901354855486
 6 -3.81325483638364 -3.94535071057106  1.95946565956596
 8 -4.45344058415841 -3.99004573937394  2.92455112491249
 8 -2.17611928682868 -4.24102040734073  1.84329426862686
 6 -1.38693721582158 -4.66181127122712  2.98733315851585
 6  2.97807970077008 -2.15900107700770 -1.24735597969797
 6  4.10361412881288 -1.33786078717872 -0.74732026432643
 6  5.03240399579958 -0.97252412381238 -1.61534773637364
 6  5.26288027182718 -1.66496963166317 -2.93752073427343
 6  6.23836766136614 -0.20685833873387 -1.04172073057306
 6  7.43704239823982 -0.73299908200820 -0.97878461576158
 6  8.49873243354335  0.29733536813681 -0.55884436493649
 6  9.85689877927793 -0.54759167946795 -0.18897720342034
 6  9.75943345964596 -1.21137995269527  1.23036740554055
 6  11.11471380138014  0.45636049024902  0.02479731813181
 6  12.43983925442544 -0.04251294409441  0.30449876107611
 6  13.41704324692469  1.09113638833883  0.35098799719972
 6  14.93321965716572  0.54861813991399  0.44600926302630
 6  15.22521750985099  0.04800251975198  1.89733965796580
 6  15.89112874127413  1.69468437043704 -0.11230802550255
 6  17.38731820992099  1.20457568196820  0.02478560466047
 6  18.42261180858086  2.23057024822482 -0.27901804860486
 6  19.91185338643864  1.63003149794979 -0.35409549324932
 6  20.05601540284028  0.83176860716072 -1.61180697189719
 6  20.97292446134614  2.70388180618062 -0.56845194109411
 1 -3.04562520082008  3.20622187318732  1.19143854555456
 1 -9.36084006650665  4.07657674277428 -0.36480011391139
 1 -10.28547103870387 -2.19927032633263 -1.13846667256726
 1 -2.54101661846185 -1.40017763556356  1.82970301860186
 1 -1.69010834943494  1.27739821602160  0.30512696609661
 1 -1.18567995169517  0.17891620602060  2.92930364146415
 1 -1.74791296519652  2.43775235163516  2.59597571537154
 1 -2.80610294279428  1.15903378867887  3.15179104820482
 1 -1.67944696499650 -2.59340061306130 -0.21267905470547
 1 -1.71697686668667 -1.04877635053505 -1.02781257205721
 1  0.41025902420242 -0.21693312661266  0.95151101630163
 1 -0.03916763656366 -2.01870820462046  1.46684691679168
 1 -3.50966549694970  5.52323015091509  0.45286024372437
 1 -5.01867214781478  6.80008268416842  0.41604851095109
 1 -4.23888491669167  5.69978893989399  2.12314008630863
 1 -8.11019403350335  6.16355146434644 -0.34947132293229
 1 -12.25254480808081 -1.32619348684869 -0.85467989518952
 1 -13.15349156415641  0.14149054885488 -0.69925756215622
 1 -13.76743456655666 -0.67293940934093 -3.18735585268527
 1 -12.73299026282628  0.91683910541054 -2.78026019551955
 1 -11.81435826022602 -1.19149246624662 -3.32437904530453
 1 -9.39102828612861 -4.67351390699070 -1.81054328232823
 1 -8.30519573417342 -5.42481249384938 -0.84744439633963
 1 -9.81407868786879 -4.84497645884588 -0.14090948144814
 1 -3.45362494389439 -4.02881660656066 -0.41152945974597
 1  2.95426704210421 -3.50084735853585 -1.38933465056506
 1  2.82158644744474 -2.00931684668467 -2.28259849514951
 1  4.03700102780278 -1.25860860926093  0.24260786238624
 1  4.16689974697470 -1.51149462196220 -3.41919203420342
 1  5.75902948134813 -1.01056973237324 -3.50991221512151
 1  5.90212403980398 -2.66683929822982 -3.06805098889889
 1  6.18519894179418  0.72562790019002 -1.98327094429443
 1  6.01458656805680  0.36986253405341 -0.19725398879888
 1  7.26944812371237 -1.69446764386439 -0.28999727812781
 1  7.60962636103610 -1.17154594489449 -1.99037851375137
 1  8.93351548294829  1.01809240404040 -1.55723850915092
 1  7.78746724482448  1.02895808400840  0.42032774117412
 1  10.28108055515551 -1.23915135883588 -0.94942209980998
 1  8.52829507380738 -1.78399721542154  1.65833419421942
 1  10.60930700010001 -2.00773465466547  1.36875876727673
 1  10.04918813041304 -0.39915113751375  2.13894519961996
 1  10.93119675747575  1.01208396829683 -0.72306947854785
 1  10.61341108770877  1.23725260086009  0.77329120942094
 1  12.69312685488549 -0.66654909440944  1.01807549084908
 1  12.84888704270427 -0.68654687528753 -0.52521551905190
 1  13.29816468646865  1.55264480948095 -0.76095500010001
 1  13.24447649244924  2.04068832013201  1.30269605900590
 1  15.04997642344234 -0.23677119311931 -0.28544673587359
 1  15.36831673157316  0.92713310881088  2.55326809980998
 1  14.50198747224722 -0.55634330623062  2.21436893499350
 1  15.95484251735174 -0.35022860596060  1.67592407010701
 1  15.43306444134413  2.03463345674567 -1.02647262196220
 1  15.71195522812281  2.71179071457146  0.62911123432343
 1  17.62445376047605  0.64086725732573  1.03570375707571
 1  17.40074759895990  0.45872404160416 -0.92206358375838
 1  17.94784979207921  2.73843039083908 -1.11415440374037
 1  18.45325532163217  2.82689659655966  0.58562523302330
 1  20.03901646284629  0.97897074327433  0.61680503130313
 1  20.12056037403740  1.22203725332533 -2.57677980318032
 1  20.83047733773377 -0.05788759055906 -1.76329046244624
 1  19.02485521252125  0.23798608020802 -1.78679675437544
 1  20.85504228282828  3.56199577867787  0.37290804440444
 1  22.07610535083509  2.28697528022802 -0.44527724272427
 1  20.82956960986099  3.58466595379538 -1.30960575687569
 1 -0.23121874697470 -4.08060080948095  2.56993534153415
 1 -1.61867154815482 -6.13718099179918  3.37365800240024
 1 -2.03680769406941 -4.22748122522252  3.97842199539954
 8 -11.53303167746775  4.10844564376438 -0.94580639433943
 1 -12.89122963446345  2.81316255635563 -1.32348295329533

