%nproc=4
%Mem=4GB
# td=(NStates=1) iop(3/107=0140000000,3/108=0140000000) iop(3/107=0140000000,3/108=0140000000) CAM-B3LYP/6-31G(d,p) 

TD

0 1
12 -5.61135264186419  1.30517539183918  0.13612221742174
 6 -5.00049043624362 -2.13906236953695 -0.41705857265727
 6 -3.31100989008901  1.19675996079608  2.77280265356536
 6 -6.33036183188319  4.53442670687069  0.67487769656966
 6 -7.95630139723972  1.20476132683268 -2.44627230073007
 7 -4.28134238753875 -0.20430862266227  1.07021836063606
 6 -4.30351387888789 -1.55529923152315  0.72390474007401
 6 -3.23884700920092 -2.29567287008701  1.50744510821082
 6 -2.81585475647565 -1.28088097899790  2.59934649074907
 6 -3.45701312871287  0.00619799209921  2.24157874307431
 6 -3.37459049844984 -1.66998043944394  3.97390008940894
 6 -2.03724891809181 -2.78871628092809  0.63934924042404
 6 -1.04163580708071 -3.56999458005801  1.49380296829683
 6  0.21536663716372 -3.91079492019202  0.60334852955296
 8  0.35596566086609 -3.62349966356636 -0.55476171037104
 8  1.07127397309731 -4.72968258555856  1.31888649594959
 7 -4.90603141944194  2.65272464936494  1.43307353905391
 6 -4.04349643944394  2.43800122182218  2.48193879717972
 6 -3.79370887458746  3.69509801200120  3.25746630283028
 6 -4.65909646234623  4.61630315861586  2.63001227252725
 6 -5.41366747094709  3.92022011721172  1.60372646494649
 6 -2.87323268636864  3.88223559935994  4.38263245264527
 6 -4.70899743034303  5.97983540404040  3.06272577737774
 8 -4.05413546154615  6.56311419941994  3.92929682958296
 7 -6.99592339223922  2.70467036283628 -0.62707436373637
 6 -7.03388610341034  4.05483510071007 -0.32079376807681
 6 -7.96456164256426  4.64597132193219 -1.24632874237424
 6 -8.33730318361836  3.70205713561356 -2.12590153455346
 6 -7.72288117861786  2.46282229102910 -1.80940688718872
 6 -8.34453744464447  6.05135504490449 -1.16490599939994
 6 -9.33006737003701  3.80927132533253 -3.26606123892389
 6 -8.68219967366737  3.97479562576258 -4.64515091909191
 7 -6.26812523152315 -0.08595361306131 -1.09725481748175
 6 -7.30641017061706  0.01396532793279 -2.03099731043104
 6 -7.51530903810381 -1.28153985758576 -2.65583810641064
 6 -6.71484103290329 -2.18868844064406 -2.03670983668367
 6 -5.93313172857286 -1.36750031513151 -1.11602773317332
 6 -8.48097355515551 -1.66003612961296 -3.80747764396440
 6 -6.23986765386539 -3.57621320522052 -1.98257181228123
 8 -6.55359975547555 -4.58788648704870 -2.65012127722772
 6 -4.97826638873887 -3.55358341094109 -0.93441576137614
 6 -5.24406188358836 -4.66283172427243  0.11462513431343
 8 -5.65812158375838 -4.41153016111611  1.23353971737174
 8 -4.84027372557256 -5.89462065846585 -0.37957110171017
 6 -5.24618218241824 -6.99371122442244  0.51190302010201
 6  2.26322729592959 -5.18818993919392  0.61266522092209
 6  3.37795233023302 -4.13600376127613  0.91794969476948
 6  4.08188757895790 -3.34940781088109  0.08474210921092
 6  3.80590492939294 -3.20819576087609 -1.39041854635464
 6  5.09203562936294 -2.44841988958896  0.67143094189419
 6  6.50818568986899 -2.80408333353335  0.09807127452745
 6  7.56856217981798 -1.79403875937594  0.68348403890389
 6  8.98530935223522 -1.92406724032403 -0.11039882238224
 6  9.61666804850485 -3.40040068046805 -0.21183464116412
 6  9.98101868096810 -0.87339757715772  0.38796131163116
 6  11.34063136553655 -0.86783639053905 -0.34807357355736
 6  12.27101479007901  0.31720634813481  0.23192003960396
 6  13.56144860066007  0.50881575147515 -0.53738850205020
 6  14.48594689368937 -0.79156855945595 -0.12698684958496
 6  14.19782572217222  1.76498266986699 -0.15587484228423
 6  15.37322151255125  2.17519554775478 -0.99451444644464
 6  15.94283686808681  3.53103785658566 -0.69354996819682
 6  17.29322457155716  3.86657449904990 -1.32934686988699
 6  17.09735232493249  3.90585547724772 -2.83657588178818
 6  17.77338674477448  5.23866913221322 -0.84667412631263
 1 -2.63449917271727  1.22486676207621  3.54962543094309
 1 -6.43960193899390  5.56766214661466  0.67717670937094
 1 -8.56126653385338  1.06680698359836 -3.29067454625463
 1 -3.67221828662866 -3.21000631603160  2.08180624142414
 1 -1.85219234313431 -1.19603726532653  2.63742501860186
 1 -3.01534131323132 -2.72670583178318  4.28079162316232
 1 -3.05583637633763 -0.85093499789979  4.60945297509751
 1 -4.45594810651065 -1.73831291219122  3.81125507600760
 1 -2.44556987068707 -3.34939445674567 -0.04863548734874
 1 -1.48040587298730 -1.94770388668867  0.31126924852485
 1 -0.61893732723272 -3.00594188978898  2.32916713541354
 1 -1.52796751835184 -4.38863599479948  2.05794759275928
 1 -1.81315142894289  3.68047757215722  4.02628853855385
 1 -2.92867385748575  5.05574278027803  4.72964922262226
 1 -3.07791078607861  3.28950994849485  5.29875488148815
 1 -5.48055111901190  6.67355154955496  2.48626394779478
 1 -10.14397353085308  2.72762341944194 -3.25835908760876
 1 -9.89652044994500  4.67103094719472 -2.92717300800080
 1 -9.39683948374837  3.72728114211421 -5.53559876217622
 1 -8.09402891229123  4.92963270867087 -4.72808276327633
 1 -7.95639548854885  3.17577693649365 -4.64794471927193
 1 -7.85776336593659 -1.44134467736774 -4.76518751705171
 1 -8.65568655165517 -2.86741014611461 -3.75652828982898
 1 -9.40762084158416 -0.86063288668867 -3.63832073877388
 1 -4.28581593899390 -3.82124695129513 -1.57284057095710
 1  2.34540567356736 -6.10361830483048  1.00654661156116
 1  1.91341208460846 -5.30039701580158 -0.51781523112311
 1  3.62625474777478 -4.37966724852485  1.97114212181218
 1  2.75944093079308 -3.59077469856986 -1.49483202420242
 1  4.03699831313131 -2.17604116341634 -1.83865633613361
 1  4.26110828482848 -4.03969769896990 -1.94768369426943
 1  4.75230527142714 -1.48312473647365  0.33268515201520
 1  5.24948347564757 -2.67649928232823  1.72258713901390
 1  6.60007753445345 -3.74039723182318  0.41907979197920
 1  6.55056521692169 -2.58109571857186 -0.90731132663266
 1  7.38572750405041 -0.69901322642264  0.84248149364937
 1  7.80833293619362 -2.27700428352835  1.75003938923892
 1  8.78974308360836 -1.63237151235124 -1.29027236533653
 1  9.11520603930393 -4.31903067446745 -0.56523031543154
 1  10.60012935373537 -3.43255745784578 -0.96562667616762
 1  9.75214427582758 -3.78713980548055  0.86128657135714
 1  9.61601075167517  0.10136586278628  0.09251461526153
 1  10.32476257375738 -1.14770130403040  1.33750329032903
 1  11.79502464376438 -1.86938697059706 -0.23926830003000
 1  11.00605669236924 -0.72805571047105 -1.31787312091209
 1  11.90425145864587  1.39469389858986  0.28274871967197
 1  12.58013283658366  0.34439563096310  1.20954923512351
 1  13.29827662836284  0.65415984828483 -1.60926316501650
 1  14.66138547684768 -0.92287049974998  0.98525420542054
 1  14.16597216821682 -1.93547256355636 -0.38044436593659
 1  15.27041803020302 -0.75311851005101 -0.73943083558356
 1  13.68569676387639  2.66410102920292 -0.23966575427543
 1  14.52691939223922  1.90549083828383  0.92699991389139
 1  16.39740139593959  1.51543015571557 -0.85943243394339
 1  14.91243682708271  2.26866077887789 -1.90351173087309
 1  15.18829023362336  4.25407078507851 -0.84108610671067
 1  16.46963973407341  3.50615725712571  0.38496839723972
 1  18.05627930933093  3.20326181738174 -1.00285936553655
 1  16.46752747314731  4.64531106000600 -3.21061342114211
 1  18.19588551205121  3.85981549484949 -3.25091969706971
 1  16.44488468866887  2.90642171217122 -3.24116215081508
 1  17.63682973017302  5.44604582208221  0.08246991119112
 1  18.91637916021602  5.29923407560756 -1.07453436783678
 1  17.24401595249525  6.20835033813381 -1.00341440274027
 1 -4.92348765016502 -7.97125655875588 -0.01170470817082
 1 -6.26112054235424 -6.92316940354035  0.67607111461146
 1 -4.74391255985599 -6.95346692229223  1.48806326292629
 8 -7.84121171277128  6.87035353615362 -0.42530031403140
 1 -8.87592588968897  6.36290193509351 -1.93024870767077

