%nproc=4
%Mem=2GB
# td=(NStates=1) iop(3/107=0140000000,3/108=0140000000) iop(3/107=0140000000,3/108=0140000000) CAM-B3LYP/6-31G(d,p) 

TD

0 1
12 -6.81626419851985  0.66187533163316  0.00137775727573
 6 -4.52207931443144 -2.14258268006801  0.43823410041004
 6 -4.21166298169817  2.85936756985699  0.86587946954695
 6 -8.97467017171717  3.16680070417042 -0.20778027972797
 6 -9.40144824242424 -1.72526555615562 -0.49749980868087
 7 -4.62499757165717  0.39487888558856  0.48925795789579
 6 -3.91720898649865 -0.77209691649165  0.48486904230423
 6 -2.64371779037904 -0.56000775997600  1.01605366766677
 6 -2.64075404120412  0.95427557635764  1.28136029852985
 6 -3.95277154005400  1.50626071127113  0.88157293199320
 6 -2.20834712041204  1.33360515641564  2.79297386018602
 6 -1.52199094749475 -1.03149571297130 -0.02540121382138
 6 -0.15352347064706 -1.11189289588959  0.54639371287129
 6  0.83309438863886 -1.29907714461446 -0.65006318011801
 8  0.86682675077508 -0.66913952645265 -1.75353634383438
 8  1.86335662226223 -2.15403570217022 -0.35052997549755
 7 -6.52790453265326  2.61378174817482  0.21526527442744
 6 -5.44351491239124  3.42056069926993  0.53735003120312
 6 -5.83869808500850  4.88110779557956  0.69313418201820
 6 -7.17133784718472  4.99492558305831  0.22211879517952
 6 -7.73091479537954  3.58457726612661  0.02882771417142
 6 -4.90137505780578  5.86889431993199  1.01831949994999
 6 -7.99207076837684  6.15027194729473 -0.01013148944895
 8 -7.65098901510151  7.35473709030903  0.26158401520152
 7 -8.80682423592359  0.79463032223222 -0.40277292639264
 6 -9.64579825222522  1.91660639593959 -0.51466251855186
 6 -10.89077570787079  1.64047391849185 -0.88584436563656
 6 -11.13985834333433  0.25712661706171 -0.89788064356436
 6 -9.80673233653365 -0.34454261746175 -0.58622069876988
 6 -11.92573934923492  2.61982817591759 -1.09095374617462
 6 -12.36374949544954 -0.55112867516752 -1.09997813151315
 6 -12.32967983008301 -0.80772293749375 -2.61969476417642
 7 -6.89714619751975 -1.40674323562356  0.00066742224222
 6 -8.10645330693069 -2.25011500820082 -0.57367056505651
 6 -7.80030761586159 -3.74103142554255 -0.44456546664666
 6 -6.45029065026503 -3.76133529442944 -0.11665992659266
 6 -5.96689297799780 -2.31623043754375  0.14952113641364
 6 -8.69554807830783 -4.84323170097010 -0.63549636553655
 6 -5.14515071957196 -4.56673247134714  0.10280830653065
 8 -4.78483023172317 -5.77270780908091  0.04513502010201
 6 -4.06035976137614 -3.45695625482548  0.49006365356536
 6 -3.53394690559056 -3.81096727222722  1.87380709370937
 8 -3.95040028012801 -4.10155689048905  2.96465513531353
 8 -2.17338901380138 -3.68018432373237  1.83653359255926
 6 -1.27462598469847 -3.82037712781278  3.08792321752175
 6  2.95109700250025 -2.40956613351335 -1.32611385548555
 6  4.04852862026203 -1.38249525062506 -0.83512904520452
 6  5.13658441384138 -1.12935980738074 -1.56641284288429
 6  5.24900888468847 -1.72974610931093 -3.03458044024402
 6  6.12650647524752 -0.14534218711871 -1.31370792929293
 6  7.48870756475648 -0.70233601570157 -1.18884562186219
 6  8.56769933023302  0.26088172277228 -0.54528300880088
 6  9.92568565796580 -0.40383730403040 -0.11700000570057
 6  9.67580509680968 -1.46819563426343  0.98298266706671
 6  11.09384171417142  0.58380323452345  0.31860669906991
 6  12.37021229172917 -0.13326201900190  0.14379269046905
 6  13.71141268386839  0.90789806450645  0.34111701010101
 6  15.12854919011901  0.18693197129713  0.30222488458846
 6  15.22016700480048 -0.75279756025603  1.60496042004200
 6  16.10761038943895  1.30518542054205  0.35851905720572
 6  17.54486396449645  0.72865809020902 -0.11887876177618
 6  18.45220476787679  1.89360655185519 -0.04015416221622
 6  19.96633883498350  1.42982147694769 -0.35307539123912
 6  19.98943874517452  1.01466689698970 -1.98063385458546
 6  20.73341050995100  2.49292071007101  0.13130803490349
 1 -3.63071370967097  3.36550780178018  1.39492889458946
 1 -10.18886286878688  4.06453553865387 -0.47091072497250
 1 -10.06159865146514 -2.51285168446845 -0.55403822972297
 1 -2.45975849264927 -1.12657027482748  2.19640968926893
 1 -2.11577091569157  1.77747822402240  0.62190864426443
 1 -1.24973635733573  1.14084239863986  3.04472518361836
 1 -2.48369654355436  2.51516009240924  3.14704082188219
 1 -2.90265259775978  1.01063894919492  3.69214508360836
 1 -1.43703272357236 -1.73575484848485 -0.52429021582158
 1 -1.63748891789179 -0.06372784568457 -0.49292908370837
 1  0.22499049734974 -0.31312274557456  1.52149801500150
 1 -0.01492521232123 -1.96143247704771  0.96804703680368
 1 -3.73310784118412  5.51048887678768  0.91420637833783
 1 -5.40122040264026  6.80995367126713  0.49450635673567
 1 -5.26389741794179  6.02482144314432  2.35584335663566
 1 -9.19251226532653  5.89902501170117 -0.36653302910291
 1 -12.00387994159416 -1.65688655615562 -0.74033846104610
 1 -13.25063127812781 -0.11245484568457 -0.99355699209921
 1 -13.21725954905491 -1.51203331873187 -2.87226434353435
 1 -12.32812977677768  0.01046846834683 -3.44194636413641
 1 -11.58384520892089 -1.45661897889789 -3.00417702510251
 1 -8.83278246154615 -4.90637719331933 -1.80258248624863
 1 -8.42795801040104 -5.70276028862886 -0.35968562046205
 1 -9.77549482948295 -4.61674363556356  0.18337294679468
 1 -3.30586016741674 -3.72901662656266 -0.28450675747575
 1  3.23604521992199 -3.44190146394639 -1.14914063116312
 1  2.68544283308331 -2.27196311131113 -2.30637087238724
 1  3.77600492819282 -0.82748549694969  0.29116271787179
 1  4.52297535453545 -1.60949442194219 -3.77553766876688
 1  6.41632521092109 -1.51243991939194 -3.28020924482448
 1  5.23025685308531 -2.75177779207921 -3.24423860766077
 1  6.23854427632763  0.75304064146415 -1.95111772897290
 1  6.26479158855886  0.35584113191319 -0.48150241364136
 1  7.68575975487549 -1.64522271937194 -0.46442472087209
 1  8.02436783518352 -1.17704649494949 -2.40489996589659
 1  8.73207533893389  0.95792638743874 -1.40900368566857
 1  8.12654115221522  0.77518270647065  0.22505821422142
 1  10.45700814791479 -1.06918436213621 -1.03664082168217
 1  8.82536478077808 -2.05654447014701  0.89535789658966
 1  10.63190926032603 -2.08843272447245  0.83503539493949
 1  9.86333954555456 -0.65752697509751  1.98116942204220
 1  11.30420405820582  1.50630339023902 -0.06432360396040
 1  10.98067781438144  0.86098497409741  1.19244312461246
 1  12.91554909710971 -0.83308574807481  0.90335401870187
 1  12.48843099709971 -0.75754397499750 -0.71891488898890
 1  13.67517238723873  1.57728727372737 -0.43787269186919
 1  13.57488953375338  1.37603185448545  1.45806159555956
 1  15.01012243804380 -0.56252376837684 -0.65376356755676
 1  14.94438433833383 -0.43461306580658  2.36344911791179
 1  14.40530780428043 -1.33567123902390  1.60161765986599
 1  16.14287132023202 -1.31866544964497  1.77644412211221
 1  15.99901103600360  2.09321931533153 -0.34840481518152
 1  16.24719875247525  1.63177271277128  1.30872919611961
 1  17.56036735183518 -0.21241807120712  0.54323451015102
 1  17.50814833903390  0.42201037023702 -1.14134551195120
 1  17.91266627372737  2.96635318311831 -0.71437442574257
 1  18.20077007310731  2.46547045394539  1.26246291679168
 1  20.11988454965497  0.50490333653365 -0.00017666686669
 1  19.84544286228623  1.83694874447445 -2.52015414061406
 1  21.03769805980598  0.72012021022102 -1.97429156255626
 1  19.27544027102710  0.13121540314032 -2.36319439413941
 1  20.47633441204120  2.81207078617862  1.46649740334033
 1  21.90928866916692  1.95707228992899  0.13258054305431
 1  20.61167782068207  3.41694918211821 -0.69365416171617
 1 -0.31455708080808 -3.74407715711571  2.63140148814882
 1 -1.18008768976898 -5.03995126882688  3.75033567016702
 1 -2.00532454575458 -2.91599007610761  4.09672382558256
 8 -11.62303067736774  3.89179397859786 -1.11784359805981
 1 -12.81718222972297  2.10757199729973 -1.28970957595759

