%nproc=4
%Mem=4GB
# td=(NStates=1) iop(3/107=0140000000,3/108=0140000000) iop(3/107=0140000000,3/108=0140000000) CAM-B3LYP/6-31G(d,p) 

TD

0 1
12 -5.68273978057806  1.30382525682568  0.08184678987899
 6 -5.03429381658166 -2.10947941124112 -0.35975284208421
 6 -3.34465325442544  1.22715300010001  2.70525589888989
 6 -6.23668246394640  4.53881714591459  0.64463467226723
 6 -7.93095886298630  1.19310016071607 -2.38466614011401
 7 -4.39983423672367 -0.29121731353135  1.14394573337334
 6 -4.17168069556956 -1.61591529312931  0.69214156375638
 6 -3.18131125562556 -2.35263856665667  1.47612197589759
 6 -2.88537170817082 -1.29824271517152  2.57231378747875
 6 -3.55491291869187  0.02063943624362  2.11150573577358
 6 -3.32139517891789 -1.68305174657466  3.95744844424442
 6 -1.98065325852585 -2.77033444274427  0.65648095359536
 6 -1.00288193169317 -3.60680826142614  1.53169675767577
 6  0.26057115761576 -3.95746958765877  0.63091128582858
 8  0.32567263156316 -3.69276659025903 -0.50150638483848
 8  1.08618546424642 -4.76831644894489  1.40875548284828
 7 -4.89303011931193  2.66389576647665  1.49228946064606
 6 -3.99807189698970  2.40161758345835  2.38921952525252
 6 -3.75147465116512  3.64634313651365  3.15544610081008
 6 -4.52317286998700  4.68542007030703  2.54061333263326
 6 -5.31362746694669  3.95102319751975  1.45160125242524
 6 -2.76232159525953  3.77502487828783  4.35915010441044
 6 -4.69754628522852  6.03062048254825  3.04510401520152
 8 -4.05589563756376  6.54768265626563  3.90162406230623
 7 -6.88386218611861  2.59155905170517 -0.68507016331633
 6 -6.91507422222222  3.93951356855686 -0.34642633133313
 6 -7.88388357475748  4.57231395619562 -1.19743385288529
 6 -8.30642009530953  3.62369929982998 -2.05016396079608
 6 -7.68335722622262  2.41750775957596 -1.80223617011701
 6 -8.24878786968697  6.04137404680468 -1.10744025282528
 6 -9.34531889518952  3.83162356055606 -3.23640827362736
 6 -8.64423587728773  4.04715286148615 -4.53554995899590
 7 -6.38459687868787 -0.12519753745375 -1.08572366436644
 6 -7.34421395099510 -0.01288735733573 -2.07706191689169
 6 -7.53723123032303 -1.29014071767177 -2.71825434803480
 6 -6.65229477827783 -2.17354692649265 -2.12334850055006
 6 -5.93376179157916 -1.43526709180918 -1.07204333473347
 6 -8.49391484928493 -1.59487961396140 -3.72713961016102
 6 -6.13985765286529 -3.56964254815482 -2.05848940404040
 8 -6.46795119061906 -4.54309200760076 -2.64478074317432
 6 -4.96379494159416 -3.48218627122712 -0.89474179397940
 6 -5.24550202760276 -4.58370381148115  0.14254792659266
 8 -5.58138390999100 -4.28871787988799  1.28325468886889
 8 -5.07599729792979 -5.81389258565857 -0.42134527912791
 6 -5.16351391559156 -6.90687254055406  0.52708453825383
 6  2.28246922012201 -5.11526264646465  0.64651860626063
 6  3.47420195519552 -4.14139430033003  0.99830773057306
 6  3.94665405560556 -3.28388125822582  0.17422105710571
 6  3.68806314521452 -3.37593253455346 -1.29258876337634
 6  5.01585801160116 -2.33292834043404  0.55547934673467
 6  6.45063993529353 -2.63077600280028 -0.00042857545755
 6  7.46716203980398 -1.78996835233523  0.52135782628263
 6  8.97113793509351 -1.98116294989499 -0.06730451295129
 6  9.34790117181718 -3.46975761616162  0.24660120242024
 6  9.91646222532253 -0.95090532793279  0.44856737223722
 6  11.33000030243024 -0.94601420832083 -0.33336210241024
 6  12.16751444004400  0.34725935343534  0.06464331193119
 6  13.46243869966997  0.47717258715872 -0.61302606580658
 6  14.38863716271627 -0.78270767336734 -0.31509566046605
 6  14.12351829142914  1.77494366596660 -0.28789804460446
 6  15.41169535993599  2.11175920412041 -0.99667466246625
 6  16.03376596099610  3.51985673847385 -0.67709832303230
 6  17.36621187028703  3.94968280988099 -1.34797873307331
 6  17.22693528322832  4.08356324802480 -2.81575379957996
 6  17.71910131623162  5.34401966726673 -0.60166962586259
 1 -2.57464318711871  1.25068934433443  3.42763323172317
 1 -6.32490046884688  5.55280066046605  0.61701069276928
 1 -8.80495090229023  1.23970427332733 -3.07966344514451
 1 -3.87278834363436 -3.14085940134013  1.82955101590159
 1 -1.58571569546955 -1.20719838143814  2.66312758885889
 1 -2.69649942904290 -2.57438059925993  4.15583912791279
 1 -2.76940773347335 -1.09426933133313  4.67165919571957
 1 -4.58421093279328 -1.70169925082508  4.10100405090509
 1 -2.32847816151615 -3.46481599889989 -0.31394201800180
 1 -1.24455228762876 -1.99163828012801  0.31905002660266
 1 -0.68480391389139 -3.08520981658166  2.32171639033903
 1 -1.41810653225323 -4.44345147634763  1.77729952795280
 1 -1.78679879367937  3.65780530493049  3.96916282598260
 1 -2.79298028812881  4.66114332033203  4.84789104680468
 1 -2.87894088908891  2.87442844034403  5.05944095009501
 1 -5.87354041794179  6.58429262366237  2.81236655805580
 1 -9.92359149264926  2.98694935203520 -3.34431768346835
 1 -9.96109690759076  4.71718556265627 -2.84010430113011
 1 -9.21331113091309  3.98327674167417 -5.51810701300130
 1 -8.02399190859086  4.97466721212121 -4.80365032003200
 1 -8.01718156715672  3.19177853665367 -4.67106703150315
 1 -8.35532312191219 -0.98058860176018 -4.57833883218322
 1 -8.56763774677468 -2.88253165826583 -4.03501613861386
 1 -9.55038511801180 -1.26080290369037 -3.52041894859486
 1 -4.06842419981998 -3.89261408800880 -1.47140042694269
 1  2.89890102310231 -6.05133307630763  0.97164312121212
 1  2.26876762016202 -5.22951992809281 -0.53719716931693
 1  4.00208233053305 -4.16609589138914  2.01815682328233
 1  2.81376636333633 -3.78505412651265 -1.64899744074407
 1  3.93079769306931 -2.32078563786379 -1.96849932043204
 1  4.36563873787379 -4.13278700790079 -1.73089201510151
 1  4.70465050595060 -1.30859728372837  0.21014289778978
 1  5.22996152345235 -2.32293392579258  1.65418029832983
 1  6.59038656535654 -3.75003819591959  0.13166105010501
 1  6.16053621402140 -2.51859946894690 -1.20812140764076
 1  7.03601253255326 -0.72613593869387  0.36165341084108
 1  7.54136623952395 -2.13966054915492  1.41910629592959
 1  8.99590369966997 -1.77936621182118 -1.18350168826883
 1  8.61138565726573 -4.16614538593859 -0.21407519991999
 1  10.34708404920492 -3.77649185128513 -0.07538765226523
 1  9.46714577597760 -3.95740683218322  1.24940538323832
 1  9.40044919551955 -0.02143641744174  0.26158152195220
 1  10.03888398589859 -0.94047058095810  1.50463000300030
 1  11.86570171147115 -1.80655068696870 -0.11216558975898
 1  11.04277036373637 -0.92449535443544 -1.45563689728973
 1  11.51699273277328  1.02176660586059 -0.31537109230923
 1  12.51608643194319  0.35087627902790  1.17563584378438
 1  13.25619241994199  0.35261969426943 -1.84702694139414
 1  14.44932427072707 -0.86517473017302  0.84037971797180
 1  13.99504507550755 -1.81642065836584 -0.31536785828583
 1  15.34094508290829 -0.60450364856486 -0.94163105560556
 1  13.30644883908391  2.66073069216922 -0.34886667436744
 1  14.28056475677568  1.64526481568157  0.70043725762576
 1  16.17023867966797  1.46061467416742 -0.66346283698370
 1  15.13123870727073  1.93407732053205 -1.98500988068807
 1  15.38042944754475  4.37266264426443 -0.95370736883688
 1  16.03797656775678  3.64173081448145  0.45913581398140
 1  18.23862754415442  3.36807829902990 -1.15639471907191
 1  16.47526824722472  4.76086261516152 -3.10578293809381
 1  17.99093501700170  4.34807432073207 -3.39969457455746
 1  17.21746194639464  3.05438650865087 -3.26474450905091
 1  17.77250329752975  5.37252847034704  0.50825248944895
 1  18.63171069336934  5.45204935713571 -1.06683359775978
 1  16.89539109000900  6.13767327042704 -0.79233329462946
 1 -4.68360366176618 -7.73685311841184  0.03551001330133
 1 -6.20559498979898 -7.01160824742474  0.90217372487249
 1 -4.61698986758676 -6.74164574017402  1.42790724732473
 8 -7.78149574117412  6.80615711651165 -0.33866165016502
 1 -9.12749104620462  6.35967161206121 -1.94472015481548

