%nproc=4
%Mem=2GB
# td=(NStates=1) iop(3/107=0140000000,3/108=0140000000) iop(3/107=0140000000,3/108=0140000000) CAM-B3LYP/6-31G(d,p) 

TD

0 1
12 -6.81615418751875  0.51628077217722  0.08409602910291
 6 -4.45174228072807 -2.14573299509951  0.33519379637964
 6 -4.19265108050805  2.58912054515452  1.15339822142214
 6 -8.91128383308331  3.28343236733673 -0.30801030273027
 6 -9.22589068666867 -1.64026705630563 -0.74301436013601
 7 -4.66061113301330  0.25550494819482  0.65475450755076
 6 -3.86626389198920 -1.03649335613561  0.70482103750375
 6 -2.39681309990999 -0.87088884808481  1.19689175147515
 6 -2.47494746054605  0.78598874767477  1.41275343784378
 6 -3.91515777867787  1.27244732993299  1.27503227792779
 6 -2.05820210591059  1.05112690859086  2.90840540334033
 6 -1.49893864226423 -1.31964452785279 -0.02271094479448
 6 -0.12670078837884 -1.31139284588459  0.47435650915091
 6  0.84366544574457 -1.37158439533953 -0.76319449324933
 8  0.71634170227023 -0.87488010051005 -1.84622561276128
 8  1.96920720732073 -2.08789908850885 -0.32077700020002
 7 -6.56872861506151  2.55440581058106  0.35804955285529
 6 -5.52388294919492  3.16422506570657  0.80264656085609
 6 -5.68042225742574  4.63960364516452  0.63965883448345
 6 -7.02057277067707  4.94239032953295  0.21817840114011
 6 -7.68570027392739  3.58731754015402  0.05013984538454
 6 -4.80574549484948  5.90981841234123  1.28447611561156
 6 -7.73110467176718  6.24015093519352  0.22423194689469
 8 -7.21741565776578  7.13373499009901  0.57816567336734
 7 -8.72994654815482  0.77829868906891 -0.43015566466647
 6 -9.45645931833183  1.99735447074707 -0.54730578287829
 6 -10.93131976227623  1.64727459855986 -1.04064984618462
 6 -10.89342369986999  0.24522542694269 -1.03935479097910
 6 -9.68573023632363 -0.32782094529453 -0.59042111881188
 6 -11.82321909720972  2.65584177727773 -1.30928557935794
 6 -12.23326644714471 -0.63415697799780 -1.32369050275027
 6 -12.57346420852085 -0.29860202540254 -2.80090288498850
 7 -6.99889637253725 -1.38111067236724 -0.22890553505351
 6 -8.10669333093309 -2.24152414911491 -0.46096929492949
 6 -7.51338892399240 -3.66615393779378 -0.43485449554956
 6 -6.26977259845985 -3.66083524442444 -0.18199646024602
 6 -5.82853914261426 -2.26557537203720  0.03076926122612
 6 -8.48029655315532 -4.87909528732873 -0.73114593049305
 6 -5.12082828732873 -4.38242404050405  0.11779980568057
 8 -5.03972572127213 -5.64362490079008  0.24287479407941
 6 -3.95769949534954 -3.47847840704070  0.58052269946995
 6 -3.46583009390939 -3.80607678317832  1.91405111811181
 8 -3.82199743984398 -4.12763949874988  2.97480615041504
 8 -2.16077775267527 -3.73638994429443  1.85604554375438
 6 -1.36702522462246 -4.23023811391139  3.12105653085309
 6  3.03741563436344 -2.30189536643664 -1.31038228232823
 6  4.07404117151715 -1.34936193729373 -1.00368590089009
 6  5.00856161156116 -0.90180705210521 -1.85606180778078
 6  5.17823180698070 -1.49559269396940 -3.20463744594459
 6  6.01220504510451  0.13783613071307 -1.45838239673967
 6  7.20870956495650 -0.61114689678968 -0.68505524282428
 6  8.34382694299430  0.27320295489549 -0.56562504300430
 6  9.64282737213721 -0.10448736903690  0.04135582988299
 6  9.40914843114311 -0.68746756145615  1.30802517131713
 6  10.80954328432843  0.84830968516852 -0.02166732833283
 6  12.07402267276728  0.24578588578858  0.08008631983198
 6  13.34851639423942  1.19353662836284  0.28302120052005
 6  14.73995033023302  0.45459873797380  0.41368603070307
 6  14.73013800190019 -0.02601488198820  1.69085900990099
 6  15.99546917531753  1.41958686068607  0.20122332763276
 6  17.35679515761576  0.78968419281928  0.03495662176218
 6  18.45490503790379  1.72502969416942 -0.52843299009901
 6  19.99070127122712  1.06467496229623 -0.30615069876988
 6  20.16461626292629  0.07108253855386 -1.49218500970097
 6  21.05831300020002  2.26834825282528 -0.69434453035304
 1 -3.17695833413341  3.39135038603860  1.39526892859286
 1 -9.53318730123012  4.06631571667167 -0.69261289518952
 1 -9.84836732833283 -2.23085348464846 -0.68462128802880
 1 -2.30886340314031 -1.24162177997800  2.09895994429443
 1 -1.89494883348335  1.21269174537454  0.83398985238524
 1 -0.74268565226523  0.86764507890789  3.16617732883288
 1 -2.13463163706371  2.25760433683368  2.94606072387239
 1 -2.87822015451545  0.13858174347435  3.52021789088909
 1 -1.76678569886989 -2.15046631963196 -0.54754254105411
 1 -1.58381355035504 -0.59849132203220 -0.87985777657766
 1  0.14302230053005 -0.46652808610861  1.11025689088909
 1  0.06365264546455 -2.15484181798180  0.91374160626063
 1 -3.89073360376038  5.57319514741474  0.92649760746075
 1 -5.34704498509851  6.90400307620762  1.04848175427543
 1 -4.45808683688369  5.69199816081608  2.34733250555055
 1 -8.79105211931193  6.26282139133913 -0.55582195799580
 1 -11.93588314191419 -1.80319118661866 -1.12447687488749
 1 -13.20464667966797 -0.27156075627563 -0.76030366676668
 1 -13.67101492459246 -0.73407552295230 -2.82477959505951
 1 -12.81382834663466  0.66199362086209 -3.20634280378038
 1 -11.87997482188219 -0.80639395639564 -3.32385899329933
 1 -8.80896007930793 -5.14999155475548 -1.85346757475748
 1 -8.31374658925893 -5.99501951455146 -0.69277892979298
 1 -9.24368164816482 -4.81561352255225  0.06757136663666
 1 -3.27335691709171 -3.74430815571557 -0.20392869966997
 1  3.66514813021302 -3.25845311911191 -1.29109482658266
 1  2.79395368416842 -2.67473338833883 -2.33035327062706
 1  4.27855518321832 -1.23899664806481 -0.03002940134013
 1  4.54045710271027 -1.01728520102010 -3.77204731973197
 1  6.14315789418942 -1.15444411981198 -3.85881710561056
 1  5.10035386278628 -2.69729234353435 -3.07863204700470
 1  6.58820924282428  0.72473781118112 -2.40651326852685
 1  5.42748785818582  1.11138668646865 -0.79714397779778
 1  6.46176735563556 -1.21151934903490  0.17524924652465
 1  7.38016341474147 -1.50748953925393 -1.12751222712271
 1  8.63643577497750  0.70917151195119 -1.34107689298930
 1  7.83922242034203  1.07177236543654  0.22701841024102
 1  10.23579602670267 -0.63761120482048 -0.79963712131213
 1  8.68104034833483 -1.60193900960096  1.49461782258226
 1  10.35921199059906 -0.90740462166217  2.08141003240324
 1  8.71535474707471 -0.07997922032203  1.97862916801680
 1  10.72156579437944  1.37853061296130 -1.06531370297030
 1  10.61236098269827  1.63662253785379  0.78787266756676
 1  12.38797633983398  0.06710427092709  0.80419410271027
 1  12.18310046404641 -0.31539976057606 -0.54031702920292
 1  13.56099096909691  1.86098564356436 -0.64780368496850
 1  13.15743778857886  1.95919017031703  1.38627441684168
 1  14.78987041284129 -0.29705722172217 -0.48845703690369
 1  14.58930883078308  0.48959935543554  2.26693946694670
 1  13.88454572807281 -0.87912558445845  1.59104660276028
 1  15.54122115521552 -0.50721430453045  1.76868334603460
 1  15.56161729662966  1.78099809320932 -1.02265223992399
 1  16.04973900650065  2.27444698019802  0.78718704190419
 1  17.45343665876588  0.32554572517252  0.94027421412141
 1  17.45014253845384 -0.19571140194019 -0.82668404580458
 1  18.57590259735974  2.31564811261126 -1.57884087238724
 1  18.43454345044504  2.47524143104310  0.18094476497650
 1  20.28138069926993  0.67332017821782  0.84859821062106
 1  20.29158747674767  0.67516256585659 -2.36793891909191
 1  21.18874316431643 -0.53076487828783 -1.21221535493549
 1  19.44658738573857 -0.91876959535954 -1.59004707940794
 1  20.84880165876588  3.39605918501850 -0.01056030243024
 1  21.97262500280028  2.08720530323032 -0.45108782378238
 1  20.91798845174517  2.88927641484148 -1.62398719501950
 1 -0.50873649874988 -4.50253300270027  2.55620396839684
 1 -2.07948762976298 -4.78681595529553  3.49682031863186
 1 -1.49697371067107 -3.79067754485449  3.87305145834583
 8 -11.58118649294929  3.84281908110811 -1.25880769446945
 1 -12.82194270577058  2.13924516461646 -1.64855546054606

