%nproc=4
%Mem=2GB
# td=(NStates=1) iop(3/107=0140000000,3/108=0140000000) iop(3/107=0140000000,3/108=0140000000) CAM-B3LYP/6-31G(d,p) 

TD

0 1
12 -6.76861943404340  0.48023716781678  0.15174279377938
 6 -4.50202730923092 -1.89535795759576  0.40239051605161
 6 -4.22258407380738  2.90089172227223  0.95573845544554
 6 -8.97934063876388  3.16638066216622 -0.03340284198420
 6 -9.33325142274228 -1.80220324992499 -0.41778183688369
 7 -4.68972404430443  0.46347574527453  0.73385241734173
 6 -3.95178244384438 -0.74477418421842  0.58680923632363
 6 -2.51011443004300 -0.44566632583258  0.99059112141214
 6 -2.49115908170817  1.15550569936994  1.27105926842684
 6 -3.82850911381138  1.67161724692469  0.94693946864686
 6 -2.12522880858086  1.53022481838184  2.67247180998100
 6 -1.54258300670067 -0.79353191659166 -0.31610028372837
 6 -0.18843696199620 -0.85199690629063  0.22996206970697
 6  0.79299037823782 -1.16281351825183 -0.92862103590359
 8  0.62742281038104 -0.72135474797480 -2.05961695189519
 8  1.86468675527553 -1.85891619021902 -0.45200012251225
 7 -6.67227897009701  2.59604997499750  0.47319106700670
 6 -5.58986954785479  3.33288193139314  0.67071336753675
 6 -5.98977319251925  4.88313799859986  0.64589945854585
 6 -7.11405211861186  4.90673676417642  0.32427901120112
 6 -7.72067377127713  3.49890869926993  0.25497032843284
 6 -4.86791171147115  5.89528695919592  0.96276394439444
 6 -7.85971753305330  6.10165708580858  0.16995651935194
 8 -7.36872078827883  7.30937255385539  0.12732058885889
 7 -8.91172472597260  0.63933479267927 -0.18006065516552
 6 -9.63513718611861  1.73403813911391 -0.19599065136514
 6 -10.83025965626563  1.38929880098010 -0.62173795499550
 6 -11.17450180768077 -0.03849294489449 -0.79188004350435
 6 -9.82255391869187 -0.44878304150415 -0.46355843254325
 6 -12.08694546984698  2.38758495159516 -0.77718236903690
 6 -12.28748186868687 -0.72571613391339 -1.21336947064706
 6 -12.22237910001000 -1.03500566576658 -2.70490328502850
 7 -6.88416489938994 -1.46960952225223 -0.00586323082308
 6 -8.03179584118412 -2.29616961366137 -0.13412661066107
 6 -7.48057564266427 -3.70026734913491 -0.29341035113511
 6 -6.07562318351835 -3.58345750665066 -0.08880714131413
 6 -5.82201849054905 -2.14891370587059  0.09146533083308
 6 -8.25323384688469 -4.83585096289629 -0.73276609250925
 6 -4.87783398789879 -4.29169496759676 -0.08517049134913
 8 -4.73350509920992 -5.44994553285329 -0.20016951035103
 6 -3.88822254765477 -3.35141570077008  0.41288593579358
 6 -3.36310982188219 -3.54251042654265  1.75018473147315
 8 -3.95332057215722 -3.97302403720372  2.78809747954795
 8 -1.95479715461546 -3.44905121042104  1.63854379357936
 6 -1.34449297139714 -3.75187027712771  2.82012643784378
 6  2.87924981778178 -2.26131130803080 -1.49798104220422
 6  4.08175194259426 -1.31527852895289 -1.25867139943994
 6  5.12596335173517 -1.12645951735174 -2.02712891449145
 6  5.28765274907491 -1.85585872057206 -3.35893287548755
 6  6.31248507310731 -0.26360401330133 -1.78142470097010
 6  7.57589628362836 -1.06422220432043 -1.27101383868387
 6  8.52796535683568  0.09727536213621 -0.88700718121812
 6  9.79124221362136 -0.57353427372737 -0.13692199789979
 6  9.48873638993899 -0.82467128182818  1.41416578537854
 6  10.96465879587959  0.48683353755376 -0.17536269786979
 6  12.30102537303730 -0.08137683048305  0.29936824802480
 6  13.33282482508251  0.97210448514851  0.30488338673867
 6  14.76797313251325  0.29023230133013  0.65802046414641
 6  14.86230121822182 -0.15208748924893  2.24664458845885
 6  16.05405503390339  1.34271917391739  0.34067727302730
 6  17.36361583968397  0.75040026442644  0.30213333943394
 6  18.43064261166117  1.64429162036204 -0.00471061786179
 6  19.87993019411941  1.13563205800580 -0.20265034873487
 6  19.77169697099710  0.33066849714971 -1.38939473067307
 6  20.92916008490849  2.24161557955796 -0.27449254515452
 1 -3.63054369266927  3.72822407340734  1.06439584128413
 1 -9.77326130863086  3.74166325142514 -0.13652728662866
 1 -10.09470196179618 -2.62416281558156 -0.52646547244724
 1 -2.29605212201220 -0.94355197299730  1.97579762806281
 1 -1.82281161976198  1.55488596479648  0.59542599599960
 1 -1.09448083178318  1.27393570797080  2.98255896699670
 1 -2.30808898279828  2.72570114651465  2.94586070387039
 1 -2.53103543604360  0.69720760606061  3.40317618671867
 1 -1.83140216051605 -1.73953522652265 -0.75234302110211
 1 -1.66761193019302  0.06912543964396 -0.93014280508051
 1 -0.11047304900490  0.00401896859686  0.53360922612261
 1 -0.31809552935293 -1.69905623942394  1.10531076317632
 1 -4.09424395479548  5.51585941384138  0.29321427912791
 1 -5.08789907050705  6.82730540644064  0.41624853095310
 1 -4.59848087628763  6.37100606160616  2.38225599789979
 1 -9.22668568266827  5.96864197339734  0.30347397159716
 1 -12.13941349494949 -1.86226709420942 -0.70398482568257
 1 -13.52298851385138 -0.59088268846885 -0.93066070247025
 1 -13.13194101720172 -1.65432754815482 -3.02679979707971
 1 -12.29964692849285  0.09907732923292 -3.36545871537154
 1 -11.40937776217622 -1.53637695469547 -3.07070367776778
 1 -8.85893507680768 -4.80778733433343 -1.69912214021402
 1 -7.67867308190819 -5.69692970557056 -0.63515316721672
 1 -9.06557383738374 -4.71921388258826 -0.49931532203220
 1 -3.03772335373537 -3.30436416131613 -0.35467377417742
 1  2.96977859325933 -3.50075734953495 -1.43465918301830
 1  2.43712800160016 -2.03406932193219 -2.48062829812981
 1  4.09543687138714 -0.89587233563356 -0.24150054845485
 1  4.66464952195220 -1.73991746424642 -4.11151126612661
 1  6.21967554595459 -1.58465714111411 -3.89743096699670
 1  5.29132295969597 -2.90778339263926 -3.26555073887389
 1  6.89239966186619  0.08681401880188 -2.71804442164216
 1  5.73318842824282  0.57538308610861 -0.95204946834683
 1  7.49664084298430 -1.51019921702170 -0.48602688108811
 1  7.91054645304530 -1.63373216351635 -1.96315579147915
 1  8.76745887728773  0.73279387418742 -1.95073785908591
 1  8.25319381748175  0.67767295549555 -0.04665895749575
 1  10.12501494859486 -1.52427987168717 -0.44140129772977
 1  8.45011725602560 -1.41139995569557  1.60619898069807
 1  10.32953902330233 -1.26340022122212  2.28485037643764
 1  8.92349556115612  0.09086786438644  2.13089439453945
 1  11.11993563136314  0.79113187308731 -1.20420759235924
 1  10.57020676727673  1.18659753535354  0.62969684998500
 1  12.14122166436644 -0.05680812031203  1.26515019831983
 1  12.50268242224222 -0.91310953155315 -0.51862485998600
 1  13.63140801080108  1.37547709270927 -1.00377928252825
 1  13.04221626642664  2.12364661596160  0.83298908830883
 1  14.98396982278228 -0.50500801680168 -0.22091028222822
 1  14.92560246014602  0.64464485998600  2.82501527452745
 1  14.35464273777378 -0.95938361026103  2.77482498059806
 1  15.63788082118212 -0.90485406850685  2.42221869956996
 1  15.89245037993799  1.68972896629663 -0.74810478517852
 1  15.98712274487449  2.14587412291229  1.03119144234423
 1  17.46933824892489  0.23370654125413  1.32110229692969
 1  17.04613213741374 -0.16067789858986 -0.17589896729673
 1  18.39910491759176  2.19432598039804 -0.68393138143814
 1  18.50321031713171  2.20458436533653  0.80174684518452
 1  19.90344290549055  0.23006585278528  0.52000535133513
 1  19.62507082508251  0.42697774737474 -2.45148727392739
 1  20.77513180318032 -0.24638644044404 -1.47742187558756
 1  19.21030375737574 -0.56479419781978 -1.16773484818482
 1  21.06402318091809  2.64727430653065  0.67022777637764
 1  22.03406114641464  2.16084266696670 -0.18999171417142
 1  20.87546419931993  2.67916540374037 -1.26684148044805
 1 -0.18576420152015 -4.01648439783978  2.44100244824482
 1 -1.54661434243424 -4.87481475517552  3.23376401300130
 1 -1.19997401070107 -3.07642611971197  3.57104125732573
 8 -11.96214458875888  3.56980177937794 -0.62493430713071
 1 -12.98168868036804  1.76325756585659 -1.26076668166817

