%nproc=4
%Mem=4GB
# td=(NStates=1) iop(3/107=0140000000,3/108=0140000000) iop(3/107=0140000000,3/108=0140000000) CAM-B3LYP/6-31G(d,p) 

TD

0 1
12 -5.72251375797580  1.18091296559656  0.25914451965197
 6 -5.03102348954895 -2.12023048634863 -0.34061092789279
 6 -3.43831262036204  1.20457074187419  2.75237061036104
 6 -6.22072086778678  4.50814407860786  0.69815002380238
 6 -8.00465623272327  1.22398324902490 -2.37663533703370
 7 -4.35007926122612 -0.30177836963696  1.02304364316432
 6 -4.22454598209821 -1.63762746434643  0.66927927752775
 6 -3.19350247474747 -2.29538284108411  1.46455081878188
 6 -2.85601877287729 -1.35278816971697  2.65585214131413
 6 -3.59316674407441 -0.06122875057506  2.20457504270427
 6 -3.35460850025003 -1.88330177157716  3.95504820422042
 6 -1.94722991619162 -2.71973938323832  0.69692499799980
 6 -0.93131477497750 -3.60122770337034  1.44313790179018
 6  0.24495959645965 -3.95707954865487  0.66880507520752
 8  0.49313937823782 -3.63232054565457 -0.47370360456046
 8  1.11369821552155 -4.76237585488549  1.38651325862586
 7 -4.96542735903590  2.54641401830183  1.50995122682268
 6 -4.10982307210721  2.40226764846485  2.59222982628263
 6 -3.72827233093309  3.54662316451645  3.22240279647965
 6 -4.51447199989999  4.55342687098710  2.55032430373037
 6 -5.28830493469347  3.89602769796980  1.53790988328833
 6 -2.86698206130613  3.69664704050405  4.44356854625463
 6 -4.53959048964897  5.94671209170917  2.96767627242724
 8 -3.92696274427443  6.54254214221422  3.78562246214621
 7 -6.88889268916892  2.58246814261426 -0.82934459075908
 6 -6.85923863866387  3.92085170237024 -0.46085777447745
 6 -7.80424561096110  4.63156988178818 -1.18274238373837
 6 -8.35902535583558  3.68863579347935 -1.99463840824082
 6 -7.84096298679868  2.41284729352935 -1.70202614911491
 6 -8.10997398829883  6.01459136853685 -1.26208571737174
 6 -9.26292065536554  3.81967236543654 -3.19834446724672
 6 -8.59828128182818  4.03821196739674 -4.58034443844384
 7 -6.48708712771277 -0.12753777147715 -1.03990908290829
 6 -7.36219574917492  0.05285921732173 -2.10968517921792
 6 -7.59871737893789 -1.31971367496750 -2.76176869946995
 6 -6.75545509430943 -2.15284485628563 -2.00691685738574
 6 -6.03948236363636 -1.37509107420742 -1.05622175257526
 6 -8.60571602940294 -1.62489261526153 -3.92640953715372
 6 -6.23870753785379 -3.48450403430343 -2.07423097819782
 8 -6.56076047154716 -4.42288998739874 -2.79820608570857
 6 -5.13039160126013 -3.60752880548055 -0.92509482928293
 6 -5.40619809720972 -4.61112655375538  0.02759643144314
 8 -5.81748752035204 -4.46614562266227  1.19055541894189
 8 -5.04395409360936 -5.82737393379338 -0.46520966556656
 6 -5.46149371357136 -6.89528138143814  0.38847067686769
 6  2.37692866606661 -5.04940606080608  0.69079303370337
 6  3.31715625062506 -3.92118227912791  0.99758765856586
 6  4.04259364956496 -3.16899977007701  0.20101373637364
 6  3.80683502240224 -3.14131907320732 -1.31298080258026
 6  5.04474089988999 -2.26742178977898  0.76426022482248
 6  6.52087695899590 -2.61186411161116  0.24283575097510
 6  7.63691901550155 -1.70104946044604  0.70661635213521
 6  8.99942076337634 -1.98645347894789  0.00726294379438
 6  9.54265064676468 -3.37838847924792  0.38532507480748
 6  10.02372295139514 -0.86263650105010  0.40031254675468
 6  11.33296059845985 -0.86602620952095 -0.32745151135114
 6  12.21732942154215  0.32738736623662  0.14957180478048
 6  13.58411086688669  0.47768263816382 -0.61567633083308
 6  14.47484578357836 -0.74928433103310 -0.50734488538854
 6  14.19397533713371  1.82978915051505 -0.20584983978398
 6  15.38474266466647  2.18925695389539 -1.07296229122912
 6  16.13925651005101  3.49940469326933 -0.70360097329733
 6  17.39976522562256  3.86409425102510 -1.45210914611461
 6  17.03083567326733  4.09619451115111 -2.94329655385539
 6  17.92947235333533  5.14021928722872 -0.86319577847785
 1 -3.03158888168817  1.28832310771077  3.68465893429343
 1 -6.31143912271227  5.37282266266627  0.74511350305031
 1 -8.63033344054405  1.09522982588259 -3.17812329112911
 1 -3.51043210801080 -3.10751606700670  1.72612067286729
 1 -1.74854197809781 -1.18462612421242  2.98178945504550
 1 -2.81174095319532 -2.84082724392439  4.24944848884889
 1 -3.09665045774577 -1.17682758715872  4.82907493729373
 1 -4.47398991069107 -1.99804888578858  4.10754470497050
 1 -2.10611592529253 -3.26698621592159 -0.23243386718672
 1 -1.54298213061306 -1.77705682198220  0.28241636323632
 1 -0.49406483998400 -3.18005930153015  2.40936515521552
 1 -1.48851357295730 -4.53781091229123  1.79991178917892
 1 -1.88898901270127  3.30411993639364  4.25708161786179
 1 -3.07934892499250  4.82600980698070  4.69092535023502
 1 -3.35991898689869  3.16861785928593  5.48671367736774
 1 -5.37796085998600  6.43576777117712  2.45948126952695
 1 -10.05019415291529  2.86178683578358 -3.36241949364936
 1 -9.97621841974197  4.58432227632763 -3.00943123382338
 1 -9.28024782458246  4.10904931893189 -5.38213341564156
 1 -8.01948145754575  4.86983672907291 -4.71905186018602
 1 -7.99483933293329  3.28843820262026 -4.83565349014901
 1 -8.26905449504950 -0.82472301520152 -4.69580057835784
 1 -8.39697068006801 -2.63712711781178 -4.17247988498850
 1 -9.51166124562456 -1.33813063646365 -3.68478538523852
 1 -4.15234259165917 -3.80227505410541 -1.29382266916692
 1  2.58920005300530 -6.07844578757876  1.26086204310431
 1  2.23858460186019 -5.29481645774577 -0.35745919551955
 1  3.47747987028703 -4.00234951675167  2.02628763636364
 1  2.83926891359136 -3.80680630173017 -1.55001754275427
 1  3.66449106240624 -2.06036959625963 -1.44751722222222
 1  4.75907808180818 -3.59401313051305 -1.75120404630463
 1  4.99886992789279 -1.14329075307531  0.55097698119812
 1  4.91912043934393 -2.17979961236124  1.81688656895690
 1  6.55302282898290 -3.64105729782978  0.46153403740374
 1  6.52596275667567 -2.55252286128613 -0.83243383888389
 1  7.52204113541354 -0.52665599069907  0.53668091359136
 1  7.75913801670167 -1.64161074417442  1.87428181348135
 1  8.89861397069707 -1.91760003520352 -1.04191752985299
 1  8.83050756945694 -4.15091386278628  0.24724093169317
 1  10.35914525532553 -3.38504270637064 -0.29432954645465
 1  9.90163922532253 -3.43002409390939  1.47478792149215
 1  9.51676082668267  0.20756648284828  0.34975033883388
 1  10.10578067556756 -0.86947348124812  1.44382392239224
 1  11.58372351365137 -1.93780381228123 -0.27963233643364
 1  11.20047613431343 -0.90734363926393 -1.46952828642864
 1  11.60441147464747  1.14759918911891  0.04767521232123
 1  12.27966278957896  0.22870406180618  1.27139541974197
 1  13.35555235593559  0.61425585788579 -1.85226746544654
 1  14.64617395569557 -0.81065927862786  0.50176585658566
 1  14.22091766276628 -1.81882089838984 -0.63695001650165
 1  15.58471946034603 -0.83346654485449 -0.93272016451645
 1  13.42111030523052  2.61431605070507 -0.21491327902790
 1  14.58864556485649  1.96608689788979  0.82927014091409
 1  16.12312396819682  1.27319593229323 -1.07151364206421
 1  15.03759934333433  2.20662457525753 -2.18842022172217
 1  15.38366977157716  4.25759113711371 -0.84278627672767
 1  16.42406517661766  3.63010965236524  0.50399029942994
 1  18.22988667006701  3.09463095429543 -1.56426550615061
 1  16.02356307670767  4.72711924082408 -3.09328168796880
 1  17.92050797429743  4.32993250655066 -3.43914851995200
 1  16.85845604580458  2.96748781878188 -3.23666170077008
 1  18.22068811601160  5.03793501100110  0.23228489268927
 1  19.08463598589859  5.26219037123712 -1.15629254365437
 1  17.40299185008501  6.03603310641064 -0.83675773707371
 1 -5.29697499889989 -7.61110054315431 -0.09680321802180
 1 -6.54642907320732 -6.75906299289929  0.56539004650465
 1 -4.86800496909691 -6.99945152075208  1.42583704030403
 8 -7.81127871947195  6.84562106290629 -0.43929171317132
 1 -8.85174347144715  6.07666331123112 -2.24558024082408

