%nproc=4
%Mem=2GB
# td=(NStates=1) iop(3/107=0140000000,3/108=0140000000) iop(3/107=0140000000,3/108=0140000000) CAM-B3LYP/6-31G(d,p) 

TD

0 1
12 -6.69183175527553  0.58847799189919  0.16031365086509
 6 -4.49338644514451 -2.04302272407241  0.42941321832183
 6 -4.12873468886889  2.76402803590359  0.96898978057806
 6 -8.80823352805281  3.16014003810381 -0.26369587128713
 6 -9.32060015761576 -1.76533956355636 -0.57556761546155
 7 -4.61422649454946  0.39759915761576  0.59078811091109
 6 -3.79135640124012 -0.80648035483548  0.65709626502650
 6 -2.29908332693269 -0.45882764196420  0.88332039433943
 6 -2.34854482028203  0.98601875067507  1.14649681218122
 6 -3.80800706360636  1.45611569676968  0.89406418111811
 6 -1.87086337203720  1.30863265916592  2.65167973077308
 6 -1.51948069646965 -0.91047361076108 -0.15146382008201
 6 -0.13421153945395 -0.97939964656466  0.30293936743674
 6  0.77016809600960 -1.49438667556756 -0.94702287608761
 8  0.67520758885889 -1.16664927742774 -2.09689067926793
 8  1.85711599819982 -1.98264856345635 -0.42448737123712
 7 -6.70806254845485  2.56307667766777  0.42479622752275
 6 -5.50339089999000  3.22654129732973  0.78164446064606
 6 -5.90760497569757  4.73570325512551  0.80795566416642
 6 -7.30938165156516  4.92487857835784  0.52013859715972
 6 -7.69398110201020  3.47769657805781  0.18857368876888
 6 -4.94404932523252  5.69417684818482  1.14863253125313
 6 -8.13130469176918  6.11248816891689  0.32681220492049
 8 -7.60014393059306  7.23443506010601  0.49043690049005
 7 -8.81399495299530  0.81089194839484 -0.31902455155516
 6 -9.54096776917692  1.74288902420242 -0.36429748204820
 6 -10.91063769406941  1.59198907000700 -0.61737751895190
 6 -10.95276963446345  0.25519642404240 -0.83007386288629
 6 -9.68957062036204 -0.34851301450145 -0.53397547424742
 6 -11.94544131943194  2.63315950905091 -0.85052970377038
 6 -12.11415453595360 -0.59393295559556 -1.26819495319532
 6 -12.17331419351935 -0.90041220642064 -2.76999979467947
 7 -6.82251873477348 -1.37722028332833  0.13771112661266
 6 -7.93821648324832 -2.21734173087309 -0.37112031003100
 6 -7.50015760086009 -3.66721404380438 -0.40293130323032
 6 -6.17852347354735 -3.57922708360836 -0.13897215781578
 6 -5.84414070277028 -2.26151496599660  0.18926511081108
 6 -8.24009253275328 -4.88275565336534 -0.66824964086409
 6 -4.86876308080808 -4.42608840694069 -0.00011198549855
 8 -4.74433618231823 -5.53668420672067 -0.02351184458446
 6 -3.72895662106211 -3.35300585978598  0.39837448464846
 6 -3.12814632553255 -3.59919609510951  1.78613832683268
 8 -3.55402064216422 -3.80139687448745  2.75328399819982
 8 -1.70457213211321 -3.95951225652565  1.74857479667967
 6 -1.15846436853685 -4.11405649574957  3.01540596579658
 6  3.03433532633263 -2.34352952985299 -1.48287953205321
 6  4.01476524392439 -1.26481348244824 -1.25055058735874
 6  4.96677743314331 -1.07538440984098 -2.14688088968897
 6  5.17365134893489 -1.69642277697770 -3.35013199539954
 6  5.88412223682368  0.03464581168117 -1.61952851135113
 6  7.14894358835884 -0.55728151025103 -0.98716545384538
 6  8.37363992429243  0.29611524612461 -0.73200168066807
 6  9.52095518491849 -0.16155307560756  0.03173486778678
 6  9.30295781208121 -0.57575639033903  1.39806417521752
 6  10.74549687968797  0.69817467166717 -0.14492965456546
 6  12.04028929942994 -0.03460215301530  0.03272158335834
 6  13.28840038263826  1.10603787848785  0.23420631903190
 6  14.66990332553255  0.36082936103610  0.72303696579658
 6  14.58342333043304  0.21351907140714  2.39854977897790
 6  15.84257388578858  1.28127302930293  0.10957416271627
 6  17.32733221132113  0.59603482788279  0.19999312541254
 6  18.37030657805781  1.41615880708071 -0.33774392119212
 6  19.81904410551055  0.87985648044804 -0.25054513821382
 6  19.85650545184518 -0.15312988268827 -1.30722651385138
 6  20.86194336323632  2.10320173817382 -0.36629172507251
 1 -3.44073471177118  3.59706095709571  1.16089549124913
 1 -9.64615859835984  4.00064915001500 -0.34260789468947
 1 -10.08762125372537 -2.44182458175818 -0.80361318721872
 1 -2.05933845064506 -0.94323194099410  1.80086013431343
 1 -1.62800213881388  1.57211768796880  0.26919337273727
 1 -0.63468485218522  0.96736505090509  2.83274398549855
 1 -1.95135330923092  2.45543411981198  2.88556467426743
 1 -2.40879321182118  0.39782766806681  3.79764563366337
 1 -1.88811783208321 -1.81773304630463 -0.58508629542954
 1 -1.60958612761276 -0.22777425032503 -1.31518130893089
 1  0.22071006930693  0.03353191989199  0.57488335353535
 1 -0.10959467926793 -1.54263059685969  1.33956418851885
 1 -3.81012554295430  5.28328615651565  0.92844780248025
 1 -5.19399968056806  6.73685636153615  0.43368027412741
 1 -4.97175820402040  5.57329629062906  2.45332310461046
 1 -9.27042005610561  5.90642575177518  0.31205482968297
 1 -12.17175672927293 -1.42757362486249 -0.90508493569357
 1 -13.11935815081508  0.02309870967097 -1.14237187358736
 1 -13.03914173727373 -1.80163227862786 -2.84225134223422
 1 -12.14734169796980 -0.15364794329433 -3.42846501600160
 1 -11.18438526292629 -1.19589290629063 -3.12987959535954
 1 -9.31744092739274 -4.68166472207221 -1.41464369236924
 1 -7.17775298989899 -5.77629764236424 -0.70409006090609
 1 -8.95388266826683 -5.33047500870087  0.12430704020402
 1 -2.74577415881588 -3.24460818571857 -0.18625693249325
 1  2.88834044944494 -3.28144541834184 -1.01561727882788
 1  2.34262855165517 -2.43671958695870 -2.54605484078408
 1  3.70943827152715 -0.57074982338234 -0.53541994039404
 1  4.12613567056706 -1.17142061456146 -3.90859097409741
 1  6.22832641104110 -1.40655933133313 -3.95422664656466
 1  4.66111993939394 -2.85135775007501 -3.38870305410541
 1  6.17754817671767  0.64104944234423 -2.47717033423342
 1  5.54114922432243  0.84859040684068 -0.84191845524552
 1  6.63880505940594 -0.96520471757176  0.05883760536054
 1  7.40372577097710 -1.66725551585159 -1.76739621552155
 1  8.64162629402940  0.73926452125213 -1.59491227652765
 1  7.96090458855886  1.24748993719372 -0.38494278587859
 1  10.02344479157916 -1.01185862956296 -0.61790894849485
 1  8.52906515081508 -1.30132894859486  1.22400076087609
 1  10.42012808220822 -0.58628250945094  2.22649454085409
 1  8.54360757235724  0.16588536613661  2.17237854295429
 1  10.70491412921292  1.31085384528453 -0.97980515211521
 1  10.40816056265627  1.69132800840084  0.49958383868387
 1  12.13192073427343 -0.75265770527053  0.96143982728273
 1  12.88713086708671 -0.77382560316032 -0.78861185868587
 1  13.47712258225823  1.34381392639264 -0.83111201580158
 1  13.07833987878788  2.03061731303130  0.70956674607461
 1  14.84766619241924 -1.00740825682568  0.20276208500850
 1  14.44264416431643  1.32450284578458  2.88991176417642
 1  14.05661293479348 -0.62390006190619  2.75874337243725
 1  15.65925295839584  0.19894631153115  2.56780325802580
 1  15.38240937583758  1.48090808420842 -1.14933490819082
 1  15.75080911351135  2.35505504100410  0.57675599879988
 1  17.25966728182818  0.35077824842484  1.44649483618362
 1  17.03251077527753 -0.50235206600660 -0.31376275367537
 1  17.89038404550455  1.67721426922692 -1.38737172547255
 1  18.53365336143614  2.37432133903390  0.28332500300030
 1  19.96427898909891  0.46722956915692  0.66017936873687
 1  19.84763308130813  0.13275832543254 -2.62700482568257
 1  20.94639892989299 -0.78735053685369 -1.43630776417642
 1  19.18044077107711 -0.98124584298430 -1.03388146284628
 1  20.46382316091609  2.76514609370937  0.67030778437844
 1  21.92127986828683  1.77309389208921 -0.42053476847685
 1  20.66930358325833  2.72862034923492 -1.46530132643264
 1  0.18206258115812 -3.70378312771277  2.85472382038204
 1 -1.39164884588459 -5.20608788248825  3.23180381698170
 1 -1.80930494379438 -3.50208868596860  3.72763691689169
 8 -11.77802617691769  3.84698949814981 -0.95262707640764
 1 -12.89911042254226  2.31731297139714 -1.14553515851585

