%nproc=4
%Mem=4GB
# td=(NStates=1) iop(3/107=0140000000,3/108=0140000000) iop(3/107=0140000000,3/108=0140000000) CAM-B3LYP/6-31G(d,p) 

TD

0 1
12 -5.56943845044504  1.20705557985799  0.20249885508551
 6 -5.02720310751075 -2.14618308160816 -0.40443731053105
 6 -3.38956774587459  1.12094237903790  2.72634800810081
 6 -6.10577937363736  4.54826809100910  0.67555776457646
 6 -8.00220598769877  1.21244209490949 -2.33279095259526
 7 -4.35277953125313 -0.32301049284928  0.97876921572157
 6 -4.30205373287329 -1.59789349094909  0.67136948654865
 6 -3.23058618311831 -2.33412671547155  1.42086645034503
 6 -2.94012718371837 -1.37569045994599  2.59668622472247
 6 -3.57567499489949 -0.14915754345435  2.11516610181018
 6 -3.50444348374837 -1.76835027642764  3.98048074747475
 6 -1.92650784398440 -2.77621503080308  0.58937424292429
 6 -1.01343298679868 -3.68315589618962  1.39497308530853
 6  0.16268136863686 -3.98802264296430  0.61119931463146
 8  0.36052611691169 -3.57537485108511 -0.45990222442244
 8  1.03761060676068 -4.74772438973897  1.30633524082408
 7 -4.88622943924392  2.57191656855686  1.39642987468747
 6 -3.90718280808081  2.39554697639764  2.36624722802280
 6 -3.61098060176018  3.55309381158116  3.15027558375838
 6 -4.44017457015702  4.54363589188919  2.63704297559756
 6 -5.21977808200820  3.96868496369637  1.52407850015001
 6 -2.66985234833483  3.75680305610561  4.23957814721472
 6 -4.45218174877488  5.95377279777978  2.94330383518352
 8 -3.87951799979998  6.49603749174917  3.89683358325833
 7 -6.84166796669667  2.63243313911391 -0.72491414771477
 6 -6.77502021682168  3.95830544774477 -0.37128881758176
 6 -7.77132231863186  4.72083880868087 -1.28141225072507
 6 -8.29742919621962  3.69155608550855 -2.08158710311031
 6 -7.66961585208521  2.44155016381638 -1.82666861336134
 6 -8.17077006790679  6.13542345174517 -1.24391390019002
 6 -9.39230359365937  3.91276167436744 -3.22630726352635
 6 -8.71124257795780  4.23325147134713 -4.49463586758676
 7 -6.35935435443544 -0.10827584528453 -1.13244833683368
 6 -7.37577710731073 -0.03188925752575 -2.16902111281128
 6 -7.63715122232223 -1.40898260186019 -2.69282180478048
 6 -6.79486903570357 -2.18095766756676 -2.10455662136214
 6 -6.01487990339034 -1.44688825392539 -1.08623475387539
 6 -8.66684214201420 -1.79185931193119 -3.73543043924392
 6 -6.25189885698570 -3.59730531443144 -1.97322087718772
 8 -6.78725312081208 -4.58598629702970 -2.50317658275828
 6 -5.07330589268927 -3.54767281988199 -0.91001332113211
 6 -5.41804928232823 -4.61583702480248  0.15375904770477
 8 -5.67351312291229 -4.38400740884089  1.36882324572457
 8 -5.22357205540554 -5.87029822622262 -0.33826697129713
 6 -5.39533709790979 -6.98593044634463  0.48087991779178
 6  2.26550752395240 -5.21376249644964  0.57220117451745
 6  3.38572310731073 -4.22529269016902  0.98708660846085
 6  3.98100749094909 -3.34385725582558  0.22830646564656
 6  3.60393473237324 -3.14450939223922 -1.26008551305131
 6  5.23456988278828 -2.56153120072007  0.78668246704670
 6  6.45487035833583 -2.80144306950695  0.02865433283328
 6  7.53680900450045 -1.85829518501850  0.53083877437744
 6  8.99111993329333 -1.91395622922292 -0.03270105260526
 6  9.50310669236924 -3.32982362276228  0.14104064636464
 6  9.92858343744374 -0.85998623602360  0.47151966746675
 6  11.32412971537154 -0.73751335823582 -0.33386215241524
 6  12.12089977857786  0.50376500400040  0.16960380798080
 6  13.53475593139314  0.58554342424242 -0.48966372957296
 6  14.34477277627763 -0.66414581718172 -0.35180933183318
 6  14.32102804240424  1.85454162576258 -0.05346460126013
 6  15.58052224262426  2.17746577477748 -1.00040503550355
 6  16.08513109750975  3.57747250005001 -0.61674228742874
 6  17.33977922702270  4.02736057765777 -1.41532546774677
 6  17.03680627032703  4.20363525522552 -2.91111333553355
 6  17.95859526562656  5.27948321362136 -0.78794825372537
 1 -2.59839556235624  1.18339261466147  3.43164363276328
 1 -6.42664064286429  5.65176055645565  0.95450444214421
 1 -8.81488189538954  1.14784508740874 -3.24617009580958
 1 -3.52330339513951 -3.33613892929293  1.81808986978698
 1 -1.83564068796880 -1.32049971157116  2.71577285338534
 1 -2.86867664676468 -2.69445260646065  4.53719726372637
 1 -3.22007279998000 -1.01929183358336  4.99370139993999
 1 -4.61518403010301 -1.86832591349135  3.92715666616662
 1 -2.19913522722272 -3.28606812411241 -0.34301492529253
 1 -1.40837867026703 -1.86001511781178  0.53888200980098
 1 -0.44333976747675 -3.13429472507251  2.16944116281628
 1 -1.63338806040604 -4.50091722292229  1.77642944094409
 1 -1.63981409520952  3.37911743614361  4.00604651435144
 1 -2.85747673777378  4.79472667866787  4.57606386408641
 1 -3.07341033603360  3.12720371787179  5.01948695469547
 1 -4.88968203210321  6.81747594199420  2.18489381078108
 1 -10.02998213171317  3.04387504460446 -3.31587483918392
 1 -10.03636443434343  4.64688853295330 -2.74990528122812
 1 -9.60608040784079  4.55141355535554 -5.11030623292329
 1 -8.23057256665667  5.17950769616962 -4.44097405240524
 1 -8.03845369436944  3.34912427122712 -5.04548447324732
 1 -8.45397298689869 -1.23688423132313 -4.58620961926193
 1 -8.35716669966997 -2.69835324042404 -4.09230186718672
 1 -9.74361444094409 -1.48442526592659 -3.41064797149715
 1 -4.20442780018002 -3.79393422002200 -1.56738002490249
 1  2.45742687568757 -6.06899484248425  1.22416837373737
 1  2.08309905330533 -5.32753973007301 -0.52084553415342
 1  3.91378350065006 -4.35250453225323  1.97027203480348
 1  2.70786577327733 -3.70707632873287 -1.36362890389039
 1  3.78023263656366 -2.07623118241824 -1.64790726122612
 1  4.43767594159416 -3.60497422662266 -1.76216514241424
 1  5.20703074397440 -1.47476390039004  0.71891377487749
 1  5.39545807310731 -2.66446807920792  1.89508438873887
 1  6.93984151085109 -3.81990518261826  0.24054193819382
 1  6.22508266866687 -2.76221383038304 -1.03757435293529
 1  7.16226515781578 -0.70527385248525  0.64911215671567
 1  7.75222732563256 -2.08579516261626  1.68654303960396
 1  8.83688779807981 -1.68726700190019 -1.05792913101310
 1  8.93987850655065 -4.11223999539954 -0.07925171757176
 1  10.49541888268827 -3.51325552765277 -0.24152426592659
 1  9.62868192959296 -3.58599969146915  1.22117255995600
 1  9.51043019361936 -0.02548682248225  0.50762612641264
 1  10.11749184668467 -0.95608214211421  1.70489002900290
 1  12.01303644494450 -1.51744177607761 -0.26243061626163
 1  11.07690377707771 -0.64555746064606 -1.18589992359236
 1  11.49969100260026  1.28033246244624 -0.01561111631163
 1  12.18500332363236  0.48299949134914  1.22820110031003
 1  13.08461526222622  0.65494992729273 -1.53217545624562
 1  14.43111244954495 -0.94851306400640  0.66503218321832
 1  13.90060563156316 -1.61162017831783 -0.81991831333133
 1  15.37987897629763 -0.47583078127813 -0.93178007050705
 1  13.53158135233523  2.94988960806081 -0.27166895459546
 1  14.41703840414042  1.85788607780778  1.02721993589359
 1  16.36021767756776  1.38756736943694 -0.62602909360936
 1  15.36733231663166  2.12340625342534 -2.04193557325733
 1  15.42311371597160  4.37592297029703 -0.79148114621462
 1  16.27638040814082  3.44339098049805  0.55326522692269
 1  18.13435711711171  3.14783627482748 -1.33008208780878
 1  16.17568828922892  4.93821034993499 -3.12201456125613
 1  17.94851077457746  4.72153166646665 -3.33325793089309
 1  16.85307550775078  3.48657972797280 -3.49342737733773
 1  18.18010405760576  5.15131634913491  0.31659332353235
 1  18.66739426172617  5.56811096329633 -1.29237615201520
 1  17.09816136703670  6.03740324342434 -0.96242030333033
 1 -5.50450575197520 -7.72166159925993 -0.42355589328933
 1 -6.20763519381938 -6.97506459305931  1.13049655715572
 1 -4.27881605020502 -7.19741131673167  1.16341079767977
 8 -7.77273486508651  7.00262676347635 -0.52958074207421
 1 -9.06357465456546  6.18866451135113 -1.82416809960996

