%nproc=4
%Mem=4GB
# td=(NStates=1) iop(3/107=0140000000,3/108=0140000000) iop(3/107=0140000000,3/108=0140000000) CAM-B3LYP/6-31G(d,p) 

TD

0 1
12 -5.63878538513851  1.28861373567357  0.23528213341334
 6 -5.01074146134613 -2.15756421972197 -0.28411527832783
 6 -3.35259404850485  1.16664694949495  2.78568394169417
 6 -6.13970276597660  4.50959422362236  0.66350655945595
 6 -8.00875664276428  1.08707955865587 -2.26859453295330
 7 -4.38745299859986 -0.34490268206821  1.07646898569857
 6 -4.31131465896590 -1.64462816441644  0.59384173377338
 6 -3.29802292679268 -2.38649195199520  1.44190855455546
 6 -2.85715888688869 -1.41071396229623  2.65978253435344
 6 -3.57020444784478 -0.11134376207621  2.11241582678268
 6 -3.48863190259026 -1.83484692609261  4.03243594299430
 6 -2.01870706390639 -2.69913732303230  0.60930623612361
 6 -1.01601324482448 -3.53060064066407  1.34082767076708
 6  0.24676977747775 -3.87994183488349  0.49229742444244
 8  0.43790385468547 -3.36058337193719 -0.59346558075808
 8  1.13254009970997 -4.67594721202120  1.11164577187719
 7 -4.93291410771077  2.62341171807181  1.51338156985699
 6 -4.03006509630963  2.40432785448545  2.42602320562056
 6 -3.68269777347735  3.66226472867287  3.10101065726573
 6 -4.47972852555256  4.60285181348135  2.54763403470347
 6 -5.22654875907591  3.94876297149715  1.54782087438744
 6 -2.74087945104510  3.85568294409441  4.25698988838884
 6 -4.61021755235524  6.03688110861086  2.80869037383738
 8 -3.99256930493049  6.52239012701270  3.74980888078808
 7 -6.92551635153515  2.64588448424842 -0.68154981128113
 6 -6.97454016881688  3.89815943314331 -0.32978466716672
 6 -8.00915610201020  4.56413313811381 -1.16474058355836
 6 -8.43963341664166  3.69775670557056 -2.06088503290329
 6 -7.78918780928093  2.40160616941694 -1.77696364286429
 6 -8.25259825072507  6.01595150455046 -1.20827033583358
 6 -9.52613697699770  3.86734713291329 -3.12239687248725
 6 -8.88413986768677  4.15147329352935 -4.49059546354635
 7 -6.33555197419742 -0.21580659835984 -1.05344043604360
 6 -7.27897742734273 -0.10889695829583 -2.07897210791079
 6 -7.60485799299930 -1.36965866946695 -2.62315483808381
 6 -6.70277982678268 -2.23720329212921 -1.96801296699670
 6 -5.99730814621462 -1.42785635073507 -1.06001213161316
 6 -8.47103256105611 -1.72852297829783 -3.74653154935494
 6 -6.25404907200720 -3.54981056495650 -2.00696425152515
 8 -6.65576997249725 -4.54615231363136 -2.67605387048705
 6 -4.99764832693269 -3.56811486408641 -0.91971429122912
 6 -5.30632811021102 -4.68891433253325  0.19182285408541
 8 -5.80478625022502 -4.43340234833483  1.26565292869287
 8 -5.07915761396140 -5.90872206860686 -0.40463360796080
 6 -5.28049561376138 -6.94187604090409  0.52542437223722
 6  2.38268924212421 -5.01458257845785  0.42173612801280
 6  3.46463099809981 -4.13882404330433  0.85479337913791
 6  4.01802119231923 -3.16430930103010  0.09105274027403
 6  3.59360369926993 -2.80933587488749 -1.32325182968297
 6  5.05773219901990 -2.41957700530053  0.58015181398140
 6  6.47949282058206 -2.54327725292529 -0.01420995359536
 6  7.63452877647765 -1.72653200870087  0.60826651715172
 6  9.07479830113011 -1.88644347794779 -0.01604938743874
 6  9.57672405410541 -3.36549719011901  0.16320286258626
 6  10.01677225632563 -0.85093533093309  0.52922543804380
 6  11.43867116951695 -0.84371397829783 -0.17020578677868
 6  12.22746043464346  0.33815844334433  0.27909475707571
 6  13.58733118891889  0.39355422532253 -0.37839260246025
 6  14.44964326332633 -0.84323372597260 -0.04930908180818
 6  14.25938187778778  1.76000217181718 -0.16455571037104
 6  15.45175936633663  2.07201522972297 -1.04453944894489
 6  15.96560914531453  3.54181893469347 -0.65517613081308
 6  17.34475972507251  3.86938478007801 -1.46132006720672
 6  17.17836042574258  3.92444733643364 -2.94462668686869
 6  18.03288269436944  5.14843010831083 -0.77338679757976
 1 -2.54858058085809  1.31698597399740  3.56521699009901
 1 -6.30721870067007  5.49954533493349  0.78654764646465
 1 -8.70053046024602  0.97804810771077 -3.20856633543354
 1 -3.49316038083808 -3.44142945834583  2.07774583538354
 1 -1.72937006090609 -1.42846050765077  2.57757903400340
 1 -3.21141092019202 -2.82522568376838  4.23132667666767
 1 -3.04256504920492 -1.07877778217822  4.76560859065907
 1 -4.70174268596860 -1.60006908780878  3.95913986448645
 1 -2.40673598729873 -3.25080459775978 -0.33613423722372
 1 -1.58628646104610 -1.84556367266727  0.24674279587959
 1 -0.70794622812281 -2.91555285088509  2.20555477417742
 1 -1.39468419001900 -4.56240337153715  1.76362816081608
 1 -1.66619673347335  3.87781730613061  4.04466037573757
 1 -3.05719670977098  4.77242444844484  5.00769702740274
 1 -2.92388538353835  3.02527352485249  4.96887189318932
 1 -5.22825588948895  6.72361655605561  2.31535685708571
 1 -10.38557769126913  3.13994465156516 -3.30092334403440
 1 -10.22291308920892  4.83610745484548 -2.93413370407041
 1 -9.55916571637164  4.42885129912991 -5.10116531883188
 1 -8.13870337973797  5.24594433983398 -4.56799675467547
 1 -8.29294914391439  3.35296465526553 -4.94920484528453
 1 -8.31421901150115 -1.15412595549555 -4.61366236453645
 1 -8.47306828982898 -2.78238164326433 -4.07687032403240
 1 -9.54530460996100 -1.57371419481948 -3.48852575927593
 1 -3.91017837523752 -3.89096392299230 -1.19771305820582
 1  2.67366849984999 -6.04241218421842  0.94421037793779
 1  1.97354809820982 -5.17432440854085 -0.65980943054305
 1  3.74533665596560 -4.01786106790679  2.09664467206721
 1  2.57507249394939 -3.19421504260426 -1.60823336433643
 1  3.46647126042604 -1.83128668796880 -1.68768123862386
 1  4.42056423042304 -3.18400212941294 -2.14697362326233
 1  4.92521256215622 -1.37768419241924  0.36415829932993
 1  5.09712824012401 -2.38033966636664  1.83508838913891
 1  6.81920944764476 -3.59366255835584  0.13001088508851
 1  6.43116327672767 -2.22152976197620 -1.18390898639864
 1  7.56062499379938 -0.61530485558556  0.56829407490749
 1  7.72288439133913 -1.82822940604060  1.78411279657966
 1  8.85961007030703 -1.80412868806881 -1.07770110821082
 1  8.89618413711371 -4.09200797219722 -0.20980477287729
 1  10.27245658645865 -3.41830603270327 -0.57703781728173
 1  9.87711677307731 -3.26334742624262  1.25622606530653
 1  9.42912206280628  0.12080780698070  0.44352971677168
 1  10.22724282178218 -1.01893842774277  1.67691723172317
 1  11.79595473677368 -1.73615364726473 -0.02131650485048
 1  11.21264735143514 -0.91253415831583 -1.28517985158516
 1  11.62086311981198  1.20721515071507  0.06954739953995
 1  12.44106893019302  0.35817700910091  1.41838011821182
 1  13.48241504220422  0.17471190349035 -1.54523676237624
 1  14.71025036333633 -0.68970718341834  1.17080276027603
 1  13.99592516351635 -1.81508052435244 -0.17832415391539
 1  15.43059404780478 -1.01237443564356 -0.45259215171517
 1  13.50259845404540  2.48412303140314 -0.40676246394640
 1  14.59696639693969  1.85757604680468  0.76254346824682
 1  16.29943159895990  1.35857447014701 -0.93390988168817
 1  15.35046062946295  2.21821573437344 -2.10085146484648
 1  15.18496990159016  4.23189856785679 -0.91492349044904
 1  16.07945071517152  3.63523016441644  0.47377727812781
 1  18.26554023542354  3.03932542374237 -1.20506958655866
 1  16.54867558795879  4.57115364426443 -3.24895725552555
 1  18.00944686818682  3.89783929722972 -3.48055266036604
 1  16.81540174037404  2.91088215821582 -3.16643467806781
 1  18.45935198239824  5.02608382588259  0.09091075527553
 1  18.86906442874287  5.30496464866487 -1.40820773517352
 1  17.29927147804780  6.13747325042504 -0.62671673297330
 1 -5.12362766416642 -7.91265069816982 -0.05461899959996
 1 -6.26676110641064 -7.12656974357436  1.03727723522352
 1 -4.66297446604661 -6.87029860546055  1.43418787538754
 8 -7.74152174377438  6.87165366616662 -0.47036482048205
 1 -9.10155845294529  6.06105175007501 -2.07537322012201

