%nproc=4
%Mem=4GB
# td=(NStates=1) iop(3/107=0140000000,3/108=0140000000) iop(3/107=0140000000,3/108=0140000000) CAM-B3LYP/6-31G(d,p) 

TD

0 1
12 -5.59020052665266  1.20460533483348  0.26721532673267
 6 -5.05200558775878 -2.06895535883588 -0.34955182198220
 6 -3.26515530463046  1.15582586738674  2.62913828712871
 6 -6.12961175687569  4.58026129032903  0.69351956075608
 6 -7.86542230933093  1.29169001970197 -2.46865453895390
 7 -4.35204945824583 -0.37369556135614  1.06475781458146
 6 -4.21851537903790 -1.65494919651965  0.66330868046805
 6 -3.15881900640064 -2.41384468726873  1.50707507120712
 6 -2.88461163216322 -1.40054294519452  2.63020957705771
 6 -3.57860528792879 -0.05380800850085  2.07072165736574
 6 -3.54344738413841 -1.70547398879888  3.99662236163616
 6 -2.01543673687369 -2.75764317361736  0.58613391889189
 6 -1.07319896339634 -3.56107368796880  1.37534112211221
 6  0.29685478597860 -3.94510835153515  0.58574676937694
 8  0.55835589988999 -3.63066037963796 -0.57054328852885
 8  1.02658950465046 -4.69113873117312  1.37395200250025
 7 -4.83630444674467  2.65347472437244  1.49497972967297
 6 -3.92802489228923  2.44522194389439  2.46851745504550
 6 -3.70577008070807  3.62324082628263  3.19038959515952
 6 -4.53755430813081  4.57708923722372  2.67510678197820
 6 -5.22010811501150  4.00165826102610  1.50109620192019
 6 -2.82595795889589  3.76210358615862  4.40049423882388
 6 -4.63062959355936  6.02302972347235  3.04882438723872
 8 -4.16362641064106  6.58819670767077  4.02019591949195
 7 -6.74800860076008  2.60928082388239 -0.74268592489249
 6 -6.88569128392839  3.92587220442044 -0.52501419011901
 6 -7.88813399979998  4.58722544734473 -1.26950105960596
 6 -8.36873632693269  3.66574350425042 -2.14256320072007
 6 -7.67945683618362  2.43418942774277 -1.79864581108111
 6 -8.26393938483849  5.99408931833183 -1.20203971277128
 6 -9.40268463176318  3.85515591379138 -3.19720435323532
 6 -8.79396084978498  4.04555270147015 -4.61310771477148
 7 -6.34382280128013 -0.08038305600560 -1.24344943694369
 6 -7.31016054565457 -0.05104117271727 -2.23006721742174
 6 -7.49559706690669 -1.33319502310231 -2.75715823842384
 6 -6.68321787058706 -2.18545811761176 -2.04238040374037
 6 -6.01315973137314 -1.45303886898690 -1.01375750615061
 6 -8.55636109390939 -1.50772089808981 -3.75534243044304
 6 -6.23670733783378 -3.64728031193119 -2.02281583668367
 8 -6.50582497799780 -4.55719341774177 -2.73562982808281
 6 -5.02285084718472 -3.60092814541454 -0.81949426922692
 6 -5.33338081548155 -4.59610505160516  0.15352902470247
 8 -5.84699047064706 -4.36158516661666  1.30903726712671
 8 -5.13766346454645 -5.85107630403040 -0.25816896149615
 6 -5.45651321552155 -6.90138199149915  0.65954778457846
 6  2.33465443864386 -5.06303742394239  0.69156311071107
 6  3.45694022902290 -4.19198935983598  1.14963286308631
 6  4.06354574477448 -3.32374524462446  0.31973560856086
 6  3.76994133303330 -3.12947788908891 -1.24501400590059
 6  5.14889131493149 -2.39976502410241  0.77073087188719
 6  6.44115898719872 -2.65737866306631  0.05754722212221
 6  7.60679600320032 -1.78769812531253  0.52815850635064
 6  8.99309013031303 -2.02006684028403 -0.20773855635564
 6  9.59175555725573 -3.40846148654865  0.08359490179018
 6  10.06750732983298 -0.91844208160816  0.27516003150315
 6  11.39183648604861 -0.91471107800780 -0.39516828302830
 6  12.21503919251925  0.26165079257926 -0.00074322672267
 6  13.49839229502950  0.42010688058806 -0.76194095729573
 6  14.36548484748475 -0.79502890549055 -0.45565971687169
 6  14.06537247684768  1.70085625722572 -0.29362861766177
 6  15.48320251065106  2.16485451365137 -1.11348634363436
 6  15.89910249464946  3.55306005880588 -0.59085969916992
 6  17.24540979007901  4.10100794239424 -1.22831676687669
 6  17.29501209090909  3.94341923362336 -2.81524374857486
 6  17.61772117821782  5.45205047034703 -0.51452091099110
 1 -2.60824654745475  1.12359663506351  3.51024149254926
 1 -6.37661564036404  5.66737211761176  0.90007899959996
 1 -8.69348975617562  1.33180348324832 -3.16247172597260
 1 -3.37258832363236 -3.33975929132913  2.09999806060606
 1 -1.82122924682468 -0.97180484208421  2.63566484258426
 1 -2.92447222632263 -2.40140330153015  4.55191873587359
 1 -3.69281007370737 -0.96445635003500  4.64005603540354
 1 -4.57016952865287 -2.08571765266527  3.80370432093209
 1 -2.19908522222222 -3.09036855415542 -0.41924254805481
 1 -1.43728156055606 -1.82961207750775  0.29591771337134
 1 -0.61111654515452 -3.08392968856886  2.32674689338934
 1 -1.47096181778178 -4.45292242344234  1.70695249324932
 1 -1.86475658945895  3.70767029142914  4.15578148784878
 1 -2.88771976207621  4.79451665766577  4.77444370207021
 1 -3.20928392339234  3.02221321882188  5.18144315031503
 1 -5.42451551545154  6.43561775617562  2.57461278267827
 1 -10.06395552905290  3.02131278837884 -3.30753400510051
 1 -10.21673247114712  4.67613145724572 -2.91351164186419
 1 -9.55521532133213  4.39456787078708 -5.22409761206121
 1 -8.12112162156216  4.95179492489249 -4.63631358635864
 1 -8.19789963896390  3.00510986978698 -5.02039196399640
 1 -8.60020761036104 -0.72679322222222 -4.66719771807181
 1 -8.36281726472647 -2.58753215831583 -4.08267090409041
 1 -9.65651573107311 -1.37140396379638 -3.28116502320232
 1 -4.32812016941694 -3.96003082968297 -1.47762104900490
 1  2.50157129012901 -6.15013295629563  0.98051400830083
 1  1.97920866426643 -5.39671664776478 -0.29454290389039
 1  3.80683280558056 -4.05076435823582  2.21389639723972
 1  2.80670565726573 -3.21753737483748 -1.55803834483448
 1  4.29752436573657 -2.16277983728373 -1.55598806930693
 1  4.60859303330333 -3.95930966016602 -1.58166709260926
 1  4.78401844274427 -1.28997542154215  0.62926480998100
 1  5.12304083138314 -2.38194982738274  2.06796167646765
 1  6.55110263696370 -3.71097428952895  0.31539942394239
 1  6.36647680808081 -2.60012762176218 -0.95806640214021
 1  7.24749368066807 -0.72645597069707  0.41197844334433
 1  7.52161426432643 -1.90617720082008  1.60479486478648
 1  8.92648675797580 -1.87824609980998 -1.34801813991399
 1  8.91347586628663 -4.15880465186519 -0.37943173557356
 1  10.77720706150615 -3.32242644474447 -0.17078719221922
 1  9.79519858125813 -3.59873096459646  1.06757720042004
 1  9.65423457405741  0.15935166136614  0.34974033783378
 1  10.21025112261226 -1.10035656955696  1.25592513251325
 1  11.88529367066707 -1.90778080998100 -0.01897627082708
 1  11.32673876057606 -0.98049095399540 -1.59087042064206
 1  11.57041807530753  1.14008843804380 -0.06030558575858
 1  12.31068589188919  0.12888407980798  1.04279255945595
 1  13.31236803750375  0.40255468776878 -1.85068730743074
 1  14.77235657395740 -0.77666587928793  0.70042572257226
 1  13.95848141914191 -1.84162317861786 -0.74226054755476
 1  15.25507649604961 -0.75582878107811 -1.18776566906691
 1  13.50053824802480  2.45427004610461 -0.13401518921892
 1  14.23005970627063  1.51765205440544  0.90122733663366
 1  16.17487914371437  1.43429204190419 -0.69675616631663
 1  15.06659224262426  2.10710462326233 -2.23976535623562
 1  15.12434383898390  4.46231160916092 -0.95810780888089
 1  15.78644141424143  3.74471111251125  0.63914381478148
 1  17.97675135653565  3.42517400860086 -0.82878195779578
 1  16.44783550395039  4.54031055995600 -3.11117347714771
 1  18.42806873037304  4.30724023732373 -3.29725433053305
 1  17.07625782598260  3.06904797479748 -3.23054108870887
 1  17.40951699889989  5.33194441194119  0.53663532773277
 1  18.72700022232223  5.64230838303830 -0.79379629402940
 1  16.85201675257526  6.14126362946295 -1.01334539583958
 1 -5.49649495089509 -7.74038347144714  0.12360882318232
 1 -6.44458888918892 -6.51539862646265  1.32562607010701
 1 -4.42194036263626 -6.98488006360636  1.37936239283928
 8 -7.82072966456646  6.88751525232523 -0.43964174817482
 1 -9.23611190829083  6.29061470637064 -1.64561024382438

