%nproc=4
%Mem=4GB
# td=(NStates=1) iop(3/107=0140000000,3/108=0140000000) iop(3/107=0140000000,3/108=0140000000) CAM-B3LYP/6-31G(d,p) 

TD

0 1
12 -5.52763427002700  1.30057493179318  0.06098470367037
 6 -4.93421380858086 -2.12186064936494 -0.41981884868487
 6 -3.36903569266927  1.16049633443344  2.68357373067307
 6 -6.27793658935894  4.55410867506751  0.71266147494749
 6 -8.04916068316832  1.21764261496150 -2.35202287578758
 7 -4.47138139143914 -0.26756494829483  0.96473781258126
 6 -4.27125065256526 -1.56805050665067  0.58939128872887
 6 -3.15179830433043 -2.30099340214021  1.28664302800280
 6 -2.87601077207721 -1.35964885578558  2.50519707580758
 6 -3.68388581598160 -0.13317594529453  2.08196278147815
 6 -3.43456649604960 -1.85589903130313  3.83656635603560
 6 -1.90248544174417 -2.58933634293429  0.51303660916092
 6 -0.98978062156216 -3.51948952955296  1.26748033603360
 6  0.21267636813681 -3.85447928862886  0.55732392709271
 8  0.56677674197420 -3.49410672427243 -0.55267150135014
 8  1.02090893659366 -4.72798241554155  1.29421402870287
 7 -4.84526534283428  2.70397977487749  1.41968219991999
 6 -4.07632972277228  2.32924034573457  2.40401100440044
 6 -3.81184068776878  3.68155665786579  3.19577013321332
 6 -4.63949450215022  4.56902843114311  2.60336960826083
 6 -5.36118222242224  4.03516161136114  1.52626871917192
 6 -2.98590395349535  3.64801217701770  4.43559774917492
 6 -4.70565709630963  6.00002742324232  3.10058956375638
 8 -4.17425747374737  6.60726861486149  3.97573147304730
 7 -6.92387618751875  2.64788468426843 -0.68993064936494
 6 -7.01380409520952  3.97565718291829 -0.32479416811681
 6 -8.06152133853385  4.66413313811381 -1.16983109260926
 6 -8.51594104740474  3.67984491439144 -2.10533947834783
 6 -7.79875876637664  2.43856986578658 -1.73445939243924
 6 -8.35619861076108  6.04329423882388 -1.08152766156616
 6 -9.50064442774277  3.85451584978498 -3.12855748854885
 6 -8.71446289999000  4.03520166636664 -4.49066547054706
 7 -6.29014743374337 -0.04240925862586 -1.21017610961096
 6 -7.26169569916992  0.07006093749375 -2.18457266796680
 6 -7.53024053125313 -1.26726843044304 -2.74996751935194
 6 -6.65827537633763 -2.08742831463146 -2.02963912961296
 6 -5.97130554595460 -1.35045861096110 -1.15973210361036
 6 -8.45801125892589 -1.69522964896490 -3.82720961716172
 6 -6.30194386148615 -3.56165174907491 -1.97122067716772
 8 -6.63178757425743 -4.54489218761876 -2.49790605570557
 6 -5.00741930403040 -3.51021907450745 -0.96735905570557
 6 -5.20896837423742 -4.65738117921792  0.06685035683568
 8 -5.62476824842484 -4.42115112321232  1.22942930633063
 8 -5.00435013321332 -5.82427362376238 -0.34292743734373
 6 -5.28460602480248 -6.99755160846085  0.45361719151915
 6  2.33372434563456 -5.12953407360736  0.75570952535254
 6  3.44744927992799 -4.12690285118512  1.14531243104310
 6  4.11804119431943 -3.32674554465447  0.26720035503550
 6  3.71759609850985 -3.13508845014501 -1.14596410091009
 6  5.23657008280828 -2.43555860346035  0.81027482628263
 6  6.61128599989999 -2.83651657685769  0.27794926232623
 6  7.66275159875988 -1.74872422792279  0.69632532303230
 6  9.07154797609761 -2.08349318291829  0.03912613011301
 6  9.63968034973497 -3.39418005840584  0.52351889418942
 6  10.02522310141014 -0.93343358075808  0.53737625312531
 6  11.36355365776578 -0.90227983488349 -0.23640240644064
 6  12.21497918651865  0.31779640714071  0.18124497209721
 6  13.52710516631663  0.36454132403240 -0.57337210041004
 6  14.51467976697670 -0.85045444804480 -0.38091224212421
 6  14.30848678827883  1.72715888748875 -0.23140239503950
 6  15.39965415581558  2.18589661786179 -1.12577757275728
 6  15.91329391379138  3.53717847064706 -0.79707032023202
 6  17.27773302240224  3.91117895949595 -1.45964990019002
 6  17.15810840054005  3.94758965066507 -3.03134535873587
 6  17.87141654775477  5.28689395469547 -0.92183164206421
 1 -2.81505722852285  1.25761003640364  3.56087655605561
 1 -6.26840481928193  5.52776815721572  0.96731572327233
 1 -8.87481788898890  1.36938724162416 -3.15783126192619
 1 -3.57246831163116 -3.13207852325233  1.56444450525053
 1 -1.76762388628863 -1.09579724132413  2.61032230833083
 1 -2.83253303240324 -2.80417357855786  4.13840738473847
 1 -3.19190998369837 -0.96387629202920  4.63389541934193
 1 -4.49283179487949 -2.32981206210621  3.91201515201520
 1 -2.06352166586659 -3.29980949824983 -0.33324394819482
 1 -1.41522935533553 -1.49405852215221  0.38981710331033
 1 -0.65232066556656 -2.81100239583958  2.14469868856886
 1 -1.45761048264826 -4.36271340254025  1.58139993799380
 1 -1.93463357715772  3.36184570897090  4.34659056875688
 1 -2.62447343744374  4.69631683768377  4.77884414211421
 1 -3.49996299129913  3.05893689118912  5.39371437743774
 1 -5.42105516941694  6.59119331373137  2.52197751915191
 1 -9.96536567006700  3.03433409050905 -3.22201545324532
 1 -10.32648344624462  4.67044088818882 -2.89488977967797
 1 -9.36528632843284  4.21021943594359 -5.33505870817082
 1 -8.02432194159416  4.80861060646065 -4.60613056805681
 1 -8.17856770577058  3.25646500530053 -4.79295922072207
 1 -8.55551314091409 -0.79419996289629 -4.62512351065106
 1 -7.98645962896290 -2.57295070017002 -4.42514515151515
 1 -9.52902298179818 -1.75981280468047 -3.34734164086409
 1 -3.91072843024302 -3.79919474607461 -1.44051733863386
 1  2.42060319331933 -6.00061800480048  1.27567352425243
 1  1.97616836023602 -5.19450642674267 -0.22336578617862
 1  3.81667378967897 -4.13996327812781  2.08598360596060
 1  2.78951393809381 -3.53232885398540 -1.32567510851085
 1  3.91527614091409 -1.93110666996700 -1.30402287278728
 1  4.55963813781378 -3.71874560376038 -1.71579050495050
 1  4.92380242114211 -1.52893931793179  0.56225810931093
 1  5.24495302260226 -2.45998763116312  1.98724360466047
 1  6.74986251295130 -3.95646883898390  0.39470735473547
 1  6.53054321472147 -2.83185079407941 -0.96311690719072
 1  7.28704763606361 -0.83040636573657  0.15845309080908
 1  7.83514561746175 -1.72754933803380  1.84337872317232
 1  9.05358946824682 -2.15824409960996 -1.02940627872787
 1  9.11868638733873 -4.20257902930293 -0.18227201960196
 1  10.84493383418342 -3.61011521362136  0.33084297079708
 1  9.58373743514352 -3.52198328982898  1.77958840154015
 1  9.47270642124212 -0.10655492929293  0.32375773957396
 1  10.12036213371337 -0.97627416131613  1.71576111611161
 1  11.82649779107911 -1.80655068696870  0.02896852365237
 1  11.44591067776778 -1.10502340724072 -1.41214254785479
 1  11.45677671117112  1.26583101230123  0.09093953875388
 1  12.52380720402040  0.38450964236424  1.22002028222822
 1  13.24634143484348  0.45546997929793 -1.71360359905991
 1  15.10080941924192 -0.89148736143614  0.74870055005501
 1  13.82980855185519 -1.81783079937994 -0.38425474697470
 1  15.28764975337534 -0.71415461366137 -1.29712660516052
 1  13.38281647584759  2.56469108820882 -0.27255904360436
 1  14.68096479677968  1.79193948314832  0.84470168406841
 1  16.02731438723873  1.34505311801180 -1.04368085878588
 1  14.99602518591859  2.00887480028003 -2.16321770147015
 1  15.31873327792779  4.39423480148015 -0.95386738483848
 1  16.18545131523152  3.65164180558056  0.30686058645865
 1  17.98629231063106  3.25886737793779 -1.20798987858786
 1  16.59664038443844  4.70154668356836 -3.41466382618262
 1  18.22700862436244  4.03558307160716 -3.38574317941794
 1  16.94033423362336  2.95329639963996 -3.53110114471447
 1  17.91459750695069  5.21352256975698  0.16890855505551
 1  18.81224874717472  5.84315846804680 -1.35327224162416
 1  17.18196974787479  6.09265876897690 -1.17056111741174
 1 -4.97283258465847 -7.84379381248125  0.05223168546855
 1 -6.44500893119312 -7.19454654125413  0.53103661116112
 1 -4.77130529912991 -6.91376295189519  1.52417687428743
 8 -7.79405699729973  6.77684418521852 -0.28580636463646
 1 -9.10722902000200  6.35847149204920 -1.99160484328433

