%nproc=4
%Mem=4GB
# td=(NStates=1) iop(3/107=0140000000,3/108=0140000000) iop(3/107=0140000000,3/108=0140000000) CAM-B3LYP/6-31G(d,p) 

TD

0 1
12 -5.62623413001300  1.25758063236324  0.13305191039104
 6 -5.02890327752775 -2.09102756605661 -0.36722358915892
 6 -3.42727151625162  1.12146243104310  2.81680705400540
 6 -6.10598939463946  4.56261952615262  0.59902011081108
 6 -8.07601336843684  1.10957180788079 -2.28420609410941
 7 -4.36652090539054 -0.21745993779378  1.06318765756576
 6 -4.29566309380938 -1.51788549014901  0.64148649824983
 6 -3.16719984448445 -2.21454475727573  1.39818418211821
 6 -2.89464263526353 -1.33848673957396  2.54139069516952
 6 -3.54989241664166 -0.10189281698170  2.13048763396340
 6 -3.45237827722772 -1.86837027842784  3.89529222862286
 6 -1.89584477767777 -2.49204661396140  0.51243654915492
 6 -0.92317396089609 -3.44102168276828  1.25216880488049
 6  0.27479257975798 -3.89119295999600  0.56255445014501
 8  0.50255031933193 -3.53614092769277 -0.61604783898390
 8  1.03157000270027 -4.67766738403840  1.24435904320432
 7 -4.97405822212221  2.69349872677268  1.42304253595360
 6 -4.00307239703970  2.33937135883588  2.42860346364636
 6 -3.66523602730273  3.59028753095310  3.12736329252925
 6 -4.44424497719772  4.61730325862586  2.46793606490649
 6 -5.24373047724772  3.95177327252725  1.49305539783978
 6 -2.77546290939094  3.69022639843984  4.19358354775478
 6 -4.39511604220422  6.00577799829983  2.79707921272127
 8 -3.75299534753475  6.65810369836984  3.56736063596360
 7 -6.91371517141714  2.61079097489749 -0.72777443374337
 6 -6.95346806160616  3.94950456765677 -0.40464215291529
 6 -7.92506769316932  4.53407013181318 -1.21324543404340
 6 -8.49078853215321  3.58907583748375 -1.99274821922192
 6 -7.81617050755075  2.41506751555155 -1.72010795729573
 6 -8.34595758665867  5.94636454585459 -1.07375688448845
 6 -9.51789615291529  3.90294069226923 -3.02554718751875
 6 -8.90803225692569  4.24816296249625 -4.42997940194019
 7 -6.41765018401840 -0.07579259695970 -1.06965205720572
 6 -7.39490902050205 -0.08883495209521 -2.09093330403040
 6 -7.55530303750375 -1.34357606120612 -2.72176469906991
 6 -6.65950549934993 -2.21599117091709 -2.00557672337234
 6 -5.92547096249625 -1.28972253735374 -1.09776590699070
 6 -8.58471392919292 -1.79754988098810 -3.65819271547155
 6 -6.20952461956196 -3.54021960586059 -1.97955151025103
 8 -6.75045944144414 -4.52437013541354 -2.49793605870587
 6 -5.08159672177218 -3.51394944754475 -0.80439275907591
 6 -5.33777125452545 -4.64296973807381  0.12902657445745
 8 -5.80952672427243 -4.47787679577958  1.21728809220922
 8 -4.70659035723572 -5.81620281668167 -0.31879502410241
 6 -5.05194275847585 -7.01301315461546  0.47288911871187
 6  2.24723569676968 -5.12527364756476  0.58433238763876
 6  3.39684421942194 -4.25818597949795  0.92426032583258
 6  3.97233662386239 -3.33632650275028  0.09629326432643
 6  3.68659299819982 -3.09920486178618 -1.33401290579058
 6  5.08535496129613 -2.48561360896090  0.68610240904090
 6  6.54128900020002 -2.77685061026103  0.07385885328533
 6  7.52379770337034 -1.79296865236524  0.75652134263426
 6  8.96537735903590 -1.91077591119112 -0.01264904740474
 6  9.50300668236824 -3.27419806020602  0.20222676497650
 6  9.88624920402040 -0.78426866426643  0.42758527402740
 6  11.24084138653865 -0.63009261616162 -0.28462722892289
 6  12.22075976457646  0.30760538803880  0.27213406100610
 6  13.47856031183118  0.46373124302430 -0.54250901410141
 6  14.46226452545254 -0.71693109570957 -0.11668581948195
 6  14.17730366996700  1.76596276787679 -0.17334658945895
 6  15.47506169656966  2.18515654385439 -1.07364235923592
 6  16.13962654705470  3.49088384118412 -0.59594020722072
 6  17.42773802290229  3.76639448104810 -1.28286222142214
 6  17.22001459115911  3.91912680438044 -2.84756698089809
 6  18.01492089818982  5.11874714001400 -0.72069152805281
 1 -2.80308603140314  1.17790206560656  3.64355482388239
 1 -6.47509548834884  5.48943432383238  0.67013600530053
 1 -8.71909231643164  1.05222552545255 -3.06504198299830
 1 -3.42442350715072 -3.40183549894989  1.76153421422142
 1 -2.00892801670167 -1.08928659025903  2.70830210631063
 1 -2.81227100620062 -2.73522668386839  4.37549109310931
 1 -3.44807560026003 -1.21780168456846  4.81874390419042
 1 -4.53430594229423 -2.40405948684869  3.69957390789079
 1 -2.15119043274327 -2.99734925222522 -0.46467709150915
 1 -1.30003783618362 -1.48069718601860  0.23829195079508
 1 -0.84852028552855 -3.32863415901590  2.45384960366037
 1 -1.43407812941294 -4.51255838703870  1.35744754275427
 1 -1.81729184298430  3.56642616701670  3.98689459915992
 1 -2.83431442154215  4.58195540154015  4.70684694239424
 1 -3.06375937093709  3.03918491599160  5.11216622262226
 1 -5.23519658355836  6.71667586198620  2.30715603700370
 1 -10.15810494399440  2.92531318841884 -2.95127837953795
 1 -10.44661545944595  4.59464330843084 -2.67243753445345
 1 -9.54931473127313  4.48426684068407 -5.20301550385039
 1 -8.26705621502150  5.18037778317832 -4.25570552555256
 1 -8.50989083808381  3.42931229002900 -5.03800372517252
 1 -8.52439002860286 -1.24638518141814 -4.66133713201320
 1 -8.37099808280828 -2.96454986008601 -3.69247188418842
 1 -9.65856593609361 -1.51458828222822 -3.36264317101710
 1 -4.28588594599460 -3.87974280088009 -1.36956024292429
 1  2.64737587058706 -6.02240018301830  1.07636359325933
 1  2.12762350575058 -5.17816479257926 -0.41427487708771
 1  3.71028315061506 -4.31322060386039  2.02708771637164
 1  2.43679866656666 -3.15874149524952 -1.49751229222922
 1  3.90790540384038 -2.00351391069107 -1.50038250875088
 1  4.28397057105711 -3.54403813301330 -2.26270519641964
 1  5.10150019091909 -1.49912633663366  0.49922180568057
 1  5.23069159645965 -2.50705233763376  1.88611349164916
 1  7.01416894359436 -3.84188738083808  0.21649953395340
 1  6.52859301970197 -2.74271188018802 -1.12314290979098
 1  7.41688061936194 -0.73578690379038  0.51433867936794
 1  7.67005910881088 -2.00040662376238  1.79734411971197
 1  8.76199030833083 -1.73518179337934 -1.16281962006201
 1  8.51023554225423 -3.82822159355936  0.01278748634863
 1  10.39228856965697 -3.69066326842684 -0.47133724722472
 1  9.71669073047305 -3.46914800630063  1.26672711541154
 1  9.34652380298030  0.09250497669767  0.32158752255226
 1  10.05971606910691 -0.67441397529753  1.46107564756476
 1  11.81002614391439 -1.60453048494849 -0.31209558275828
 1  11.12518860556056 -0.21663456835684 -1.29935126872687
 1  11.83200423392339  1.33288771797180  0.45460590539054
 1  12.42297712101210  0.07414860626063  1.42504078427843
 1  13.34115091579158  0.51646607890789 -1.71658389708971
 1  14.43441277957796 -0.71337955065507  0.90174585458546
 1  13.93535910691069 -1.67571658795880 -0.42685900740074
 1  15.42987397579758 -0.68052125032503 -0.90725761826183
 1  13.48296649084909  2.71922654175418 -0.17246903460346
 1  14.75193189348935  1.87942823202320  0.70607782168217
 1  16.25993764956496  1.35607422012201 -1.18142463316332
 1  15.12697828122812  2.16598051085109 -2.17136851655165
 1  15.60773217781778  4.55099047704770 -0.65912791089109
 1  16.40027279737974  3.37440408180818  0.47880778117812
 1  18.03931761316132  2.97238873007301 -1.11919099869987
 1  16.47857857825782  4.76456298519852 -3.03827618741874
 1  18.08070399389939  4.27768728202820 -3.31401600670067
 1  16.78528872907291  3.01633270327033 -3.45903393799380
 1  18.31036708390839  4.94237545504551  0.19809147334733
 1  18.90236775907591  5.31381553375337 -1.25820273467347
 1  17.30456200710071  6.20821032413241 -0.87141120242024
 1 -4.79345464686469 -7.99775920902090 -0.12245578327833
 1 -6.04861929222922 -7.07414450105011  0.67050055755576
 1 -4.66987515611561 -6.90138171377138  1.47295175177518
 8 -8.03510110171017  6.76962346314632 -0.20613839783978
 1 -8.96418471557156  6.04577022192219 -2.16513219601960

