%nproc=4
%Mem=2GB
# td=(NStates=1) iop(3/107=0140000000,3/108=0140000000) iop(3/107=0140000000,3/108=0140000000) CAM-B3LYP/6-31G(d,p) 

TD

0 1
12 -6.80002257435744  0.67967711181118  0.20453807330733
 6 -4.51411851835184 -1.93736215801580  0.30859113611361
 6 -4.17224904030403  2.75241687478748  0.99188206980698
 6 -8.95645835053505  3.21709573367337 -0.22541204290429
 6 -9.40994909250925 -1.78003103270327 -0.60338039673967
 7 -4.79521459335934  0.44981437913791  0.43442247434743
 6 -3.95672293789379 -0.74134384118412  0.44370492589259
 6 -2.36616003460346 -0.49505126432643  0.95419748204820
 6 -2.39927989378938  0.87321747054705  1.17736989948995
 6 -3.91426768966897  1.35347543274327  0.81070584528453
 6 -1.99591587728773  1.28148994489449  2.75186974977498
 6 -1.48460720912091 -1.12331489488949 -0.00962963666367
 6 -0.12250036833683 -1.29174088068807  0.39805887938794
 6  0.95511659085909 -1.33178041494149 -0.58985715951595
 8  1.02030209830983 -0.58919153165317 -1.68634962516252
 8  1.85746603320332 -2.18643894249425 -0.32536745924592
 7 -6.64588633083308  2.66515688568857  0.28884263216322
 6 -5.49266982788279  3.25438408160816  0.74041033723372
 6 -5.85180939613961  4.88527821262126  0.76069093769377
 6 -7.22708342174217  4.95008109860986  0.31910849414942
 6 -7.75165686958696  3.48375718411841  0.14098893029303
 6 -4.74303922422242  5.90932836333633  1.03630129812981
 6 -7.93887544884488  6.17352427252725  0.21079060276028
 8 -7.61477539373937  7.23091470807081  0.47572542934293
 7 -8.67793134663466  0.68088894809481 -0.35613826292629
 6 -9.45211888428843  1.88906364166417 -0.57712876517652
 6 -10.88140477077708  1.47278714981498 -1.03190897209721
 6 -10.88111246874687  0.12234313871387 -1.02971382688269
 6 -9.62827449074907 -0.42569073227323 -0.61796387308731
 6 -11.95561233653365  2.57532372547255 -1.19418406920692
 6 -12.11090421092109 -0.72618618091809 -1.33986211991199
 6 -12.45497235933593 -0.90695286048605 -3.00718351305130
 7 -6.88897538043804 -1.46716927822782 -0.08061070557056
 6 -8.10613327492749 -2.29677967466747 -0.39688288628863
 6 -7.71206879197920 -3.72306962936294 -0.33891490159016
 6 -6.31603722492249 -3.70773993489349  0.02250398979898
 6 -5.89074536323632 -2.25114392889289  0.07035321962196
 6 -8.45277380088009 -4.86936431423142 -0.76071888778878
 6 -4.99312551705171 -4.34520031813181  0.16366439213921
 8 -4.86573832253225 -5.56942748104811  0.07849835643564
 6 -3.89832355775578 -3.28878943814381  0.48834348154815
 6 -3.24666817771777 -3.45719189468947  1.79930964396440
 8 -3.73826906700670 -3.84885161996200  2.79586825662566
 8 -1.63639531443144 -3.51847815311531  1.71427136633663
 6 -1.11079960206021 -3.96393148324832  2.89472389758976
 6  3.03582547534753 -2.39775495239524 -1.18073931803180
 6  4.13795756315632 -1.35632263336334 -0.88178371067107
 6  5.19108986438644 -1.06620349174917 -1.69064526612661
 6  5.25181916571657 -1.59474260896090 -3.04424140634063
 6  6.02852667726773 -0.04711236413641 -1.21782834133413
 6  7.32107080108011 -0.67132291439144 -0.51655839313931
 6  8.44950751105110  0.15140077467747 -0.10491897239724
 6  9.69581267066707 -0.23389030933093  0.29332102640264
 6  9.30466798309831 -1.03722253695370  1.56206057485749
 6  10.81838416841684  0.74852970717072  0.30393523192319
 6  12.08422369286929  0.14345565276528  0.09376768796880
 6  13.18718026062606  0.97156443114311  0.34016691509151
 6  14.65393172837284  0.39043232133213  0.38096275837584
 6  14.80932592069207 -0.30185246574657  1.69401932593259
 6  15.81358098649865  1.41352625462546  0.10907411271127
 6  17.25089456755676  0.65145036943694 -0.09580645454545
 6  18.49867941534153  1.69309650085009 -0.18617876467647
 6  19.88806100720072  1.08958745354535 -0.64924500820082
 6  19.64193399469947  0.19096452675268 -1.90021581278128
 6  20.99246641554155  2.14205562356236 -0.66262135803580
 1 -3.19991062936294  3.72261351235124  1.32176157785778
 1 -9.72628661116111  3.93188227332733 -0.30176381028103
 1 -10.24821731333133 -2.66013641294129 -0.84200702660266
 1 -2.26099861666167 -0.94328194599460  1.77100714901490
 1 -1.59897923652365  1.39597007320732  0.48470492389239
 1 -1.12058344204420  0.94051236563656  3.03468417951795
 1 -1.87340551445145  2.16934551095110  2.97360347814781
 1 -2.94644697719772  1.20370825612561  3.61305717481748
 1 -1.78149717001700 -2.10504177717772 -0.43786157295729
 1 -1.50682585158516 -0.27900937383738 -0.70966075687569
 1  0.08534653295330 -0.54079551285129  1.03600946614661
 1  0.25191147134713 -2.37938427222722  0.89821005310531
 1 -3.50274480488049  6.20291811971197  0.56793175087509
 1 -5.37987826842684  6.83557623352335  0.83225013111311
 1 -4.34668569676968  5.59561852285229  2.08886665896590
 1 -9.24600761486149  6.13038814801480 -0.40843721952195
 1 -12.12197175077508 -1.78965983348335 -0.82335676287629
 1 -13.30042625762576 -0.50131373157316 -0.83546118251825
 1 -12.99213703680368 -2.05822793819382 -3.07948506560656
 1 -13.11161812561256  0.06912433393339 -3.59092126162616
 1 -11.16859368376838 -0.99472278927893 -3.52029863726373
 1 -9.24274345764577 -4.44711126672667 -1.66028825682568
 1 -7.69981519611961 -5.66247626022602 -1.01277092899290
 1 -9.17218449844985 -5.56188815001500 -0.28372376287629
 1 -3.28849843124312 -3.57472119701970 -0.31309961676168
 1  3.29961157655766 -3.49720699449945 -0.91563728082808
 1  2.73227751655166 -2.56586250125013 -2.24908514381438
 1  4.09044637233724 -0.75526827522752  0.19412301390139
 1  4.37340039703970 -1.35522899539954 -3.83875399039904
 1  6.36766034443444 -1.40249892529253 -3.42340356425643
 1  5.40545437283728 -2.59369198349835 -2.66881106490649
 1  6.50346076797680  0.57032236963696 -2.23909652685269
 1  5.22569767916792  0.88605415321532 -0.34855911931193
 1  7.03085426432643 -1.19697789488949  0.17157887948795
 1  7.74651004940494 -1.20449924022402 -1.17041651755175
 1  8.64280641204120  0.54447504230423 -0.76045883118312
 1  8.25639413751375  0.74825001320132  0.49608531693169
 1  9.73611605870587 -0.90490793449345 -0.52562972057206
 1  8.27921016531653 -1.62629144484448  1.47489585038504
 1  10.27028309770977 -1.36622050325032  1.98023991539154
 1  8.89952316391639 -0.52003322572257  2.49148045314532
 1  10.72187582538254  1.55095785568557 -0.22969014061406
 1  10.68607835443544  1.38493736933693  1.45889977027703
 1  11.95518306050605 -0.68472091159116  0.94071775507551
 1  12.11641379537954 -0.22918113871387 -0.91652464996500
 1  12.83799866986699  1.68930847584758 -0.39724862946295
 1  12.92057410221022  1.81923617491749  1.05498128752875
 1  14.54004543034303 -0.53128064406441 -0.43264145534553
 1  14.60851075097510  0.33690408590859  2.44318709170917
 1  14.18907618111811 -1.11389906180618  1.59748724682468
 1  15.64723175627563 -0.70397398049805  1.79741621932193
 1  15.73228436333633  2.15319531293129 -0.68508848354835
 1  15.82244627722772  2.17042657815782  0.94252257545755
 1  17.36641795689569 -0.26765359475948  0.82061224792479
 1  17.22937046124612 -0.08079991079108 -1.14216559395940
 1  17.92405741284129  2.19087563536354 -0.89337232553255
 1  18.59544954105410  1.91597550445044  0.60288695919592
 1  19.85587814901490  0.25956880308031 -0.00482713191319
 1  19.30897921592159  0.76276132573257 -2.75118724392439
 1  20.58839312931293 -0.25147694949495 -2.16468060146015
 1  18.80997372437244 -0.53840155855586 -1.81574964966497
 1  20.85849262786278  2.03246282538254  0.71175192879288
 1  22.05410315061506  1.76924350705071 -0.93896661166117
 1  20.70207686058606  3.08855634283428 -1.22367716401640
 1  0.06749112401240 -4.36165891529153  2.39903825182518
 1 -1.57695737673767 -4.76478375207521  2.85175581218122
 1 -1.26159017231723 -3.24224270137014  3.94671882508251
 8 -11.71811018531853  3.77907270647065 -1.00253206690669
 1 -12.73706421792179  2.14747598769877 -1.70636124112411

