%nproc=4
%Mem=2GB
# td=(NStates=1) iop(3/107=0140000000,3/108=0140000000) iop(3/107=0140000000,3/108=0140000000) CAM-B3LYP/6-31G(d,p) 

TD

0 1
12 -6.82044461656166  0.70082922702270  0.05848346784678
 6 -4.42770987748775 -1.96845526732673  0.39338961596160
 6 -4.16544836023602  2.82509414251425  0.83435631723172
 6 -9.15370807550755  3.23643766786679 -0.01112061376138
 6 -9.32439053665367 -1.79005203480348 -0.61065112381238
 7 -4.47553262516252  0.45751514921492  0.42925195729573
 6 -3.65632289788979 -0.71990169696970  0.58831938733873
 6 -2.37948136673667 -0.48955071427143  0.88469053135314
 6 -2.31992195799580  1.17000714951495  0.92104426692669
 6 -3.85741200410041  1.52231231643164  0.82947772247225
 6 -1.78382466816682  1.44503629952995  2.34000856365637
 6 -1.54492324072407 -0.85851841524152 -0.26556523022302
 6 -0.02393051135114 -1.10982268886889  0.13570264376438
 6  0.83500457965797 -1.52053929082908 -1.02361053485348
 8  0.67884795289529 -1.38215082758276 -2.22211320152015
 8  1.96325661226123 -2.31391168976898 -0.47386230873087
 7 -6.58741048324833  2.68432880288029  0.41919566746675
 6 -5.56105666656666  3.26615525872587  0.81471776797680
 6 -5.88504271947195  4.85092477727773  0.64701957055706
 6 -7.30766147954795  4.92701879237924  0.55930251355136
 6 -7.76200790469047  3.57304611301130  0.35815064646465
 6 -5.14135905620562  5.91628905940594  1.01441910991099
 6 -8.18421998329833  6.15715263536354  0.43689321302130
 8 -7.86051996819682  7.32930454705471  0.67206506330633
 7 -8.78548210171017  0.84548540774077 -0.46808945804580
 6 -9.48698237063706  1.80773550885088 -0.38221927422742
 6 -11.04210084038404  1.44641451255126 -0.67804358555856
 6 -10.94420877837784  0.09452035643564 -0.76330718621862
 6 -9.67190885418542 -0.45876403960396 -0.59967204390439
 6 -12.19598637393739  2.40989718281828 -0.67558220902090
 6 -12.20521364186419 -0.79051261356136 -1.24274240794079
 6 -12.32737960006001 -0.95627779297930 -2.77679047374738
 7 -6.97048353125313 -1.36277883918392  0.00053740924092
 6 -7.95773843544354 -2.21450144684468 -0.43867706570657
 6 -7.44811239633963 -3.69662698509851 -0.52671368146815
 6 -6.08637425862586 -3.56593575447545 -0.12550081068107
 6 -5.81434772347235 -2.14839365386539  0.06855303960396
 6 -8.34129265276528 -4.90665804360436 -0.77590040594059
 6 -4.94154035853585 -4.29615541364136  0.08948697439744
 8 -4.64551630033003 -5.50757129542954 -0.04824431783178
 6 -3.79695342074207 -3.25231579077908  0.45578022522252
 6 -3.08134164506451 -3.42348852435244  1.85545525852585
 8 -3.60028526862686 -3.59804653945395  2.90697936773677
 8 -1.85600727562756 -3.36884318961896  1.89414935413541
 6 -1.30397891999200 -3.73996908700870  3.26111053625363
 6  3.10917281008101 -2.58876405330533 -1.47980922502250
 6  4.13034680208021 -1.44677167826783 -1.29325485778578
 6  5.11669242464246 -1.21847871927193 -2.02590879247925
 6  5.33537752155216 -2.28248138283828 -3.13984096629663
 6  6.15950977557756 -0.20729838273827 -1.95761231973197
 6  7.41295998999900 -0.78076385848585 -1.17243398069807
 6  8.31569412971297  0.54134976957696 -0.81795027552755
 6  9.61119420882088 -0.28500542084208  0.03535522982298
 6  9.24591210751075 -0.60105892059206  1.63955832463246
 6  10.87339966996700  0.68241309550955 -0.06077123872387
 6  12.13076834733473  0.11901320852085  0.15567387858786
 6  13.36211775437544  1.03263053775378  0.12133503190319
 6  14.67261359655966  0.38778205630563  0.65432009410941
 6  14.55216020412041  0.05512323182318  2.33607353135314
 6  15.91395102350235  1.49965486748675  0.34986819211921
 6  17.24845432353235  0.64965018941894  0.22460558665867
 6  18.39509905730573  1.69948713991399  0.01704155735574
 6  19.84378657975797  0.74386288108811 -0.13833391709171
 6  19.86999680098010  0.08224365466547 -1.62795858705871
 6  21.04055122402240  1.90073149114911 -0.23109820572057
 1 -3.51473211151115  3.36804805580558  1.37661706340634
 1 -9.87696167866787  4.01134021912191  0.03776014211421
 1 -10.03591608320832 -2.51590198949895 -0.62097492339234
 1 -2.15083760056006 -1.23624124192419  1.63419346764677
 1 -1.73469280788079  1.57373784998500  0.12005845924593
 1 -0.99459084278428  0.79755807020702  2.62147285838584
 1 -1.58206638053805  2.41223980038004  2.79987610541054
 1 -2.62351468396840  1.60624851015101  3.05705157425743
 1 -2.08346736703670 -1.74186545954595 -0.85957374417442
 1 -1.56539170817082 -0.21854332723272 -1.45847563836384
 1  0.21872987128713 -0.11154258755876  0.65372123732373
 1  0.02202848304830 -2.11820815461546  0.80280051215121
 1 -4.45007953835383  5.95027285518552  0.39882484018402
 1 -5.20699097969797  6.91698437433743  0.86269317541754
 1 -4.61132216041604  5.47889685068507  2.15010278257826
 1 -9.43870688478848  5.82087719691969  0.19415303950395
 1 -12.25319487308731 -1.85340620812081 -0.51970639783978
 1 -13.40455667066707 -0.60636423662366 -0.72776041244124
 1 -13.18460628372837 -1.38149026442644 -3.00059717681768
 1 -12.32983994779478  0.02835025652565 -2.97428959845985
 1 -11.35352217661766 -1.34783810081008 -3.29448605600560
 1 -8.60325950925093 -4.66105266086609 -1.91794402240224
 1 -7.79306452105211 -5.81009102170217 -0.77470712261226
 1 -9.01487876787679 -4.80022198339834 -0.32321771227123
 1 -2.90803038443844 -3.11892561746175 -0.15202350915091
 1  3.32800441584158 -3.71036831063106 -0.97774349144914
 1  2.89029331813181 -2.99358527352735 -2.55168540384038
 1  3.84340166786679 -0.61859460786078 -0.34576097449745
 1  4.36002905990599 -3.13228670117012 -3.63919403440344
 1  5.79221279967997 -1.43243191859186 -3.70541176507651
 1  6.33439726712671 -3.13995660996100 -2.72671685548555
 1  6.60036045794580  0.31738707610761 -2.91855447264727
 1  5.61211632103210  0.64929047684769 -1.03871813521352
 1  7.00463164206421 -1.35523372047205 -0.15748402680268
 1  7.71356675507551 -1.72137092739274 -1.79206868276828
 1  8.73159529092909  0.95697629242924 -1.77671045634563
 1  7.83372187028703  1.32091727992799 -0.12654694629463
 1  9.63581602870287 -1.46107355105511 -0.67401455905591
 1  8.17123936823682 -1.22994180988099  1.79925828662866
 1  10.06746281568157 -1.36113999519952  2.05471736313631
 1  8.72303551515152  0.52690146774677  2.40306161126113
 1  10.92346598439844  1.04071683158316 -0.82647981958196
 1  10.48727847444744  1.53123199879988  0.49005288558856
 1  12.07767530973097 -0.26251869136914  1.31017470077008
 1  12.12584473847385 -0.60795901650165 -0.46635963346335
 1  13.73305817581758  1.38038758375838 -1.14159306390639
 1  13.22938498329833  2.16499075037504  0.90975676507651
 1  14.91899332513251 -0.60009752575257  0.17684949374938
 1  14.48002790269027  0.94310470597060  2.89089186218622
 1  13.46987426092609 -0.52130980288029  2.34040153825382
 1  15.32320935403540 -0.77329091219122  2.51079755745575
 1  15.72449358425842  1.98158815221522 -0.60185015971597
 1  15.90418445104510  2.16120565606561  1.29872819601960
 1  17.25918723382338  0.24991816241624  1.26928711541154
 1  17.31660918511851 -0.14132596339634 -0.35344672207221
 1  18.31471647874788  2.46608315611561 -0.99566255455546
 1  18.62152214831483  2.18290219711971  0.81313798429843
 1  20.00540310151015 -0.11520867466747  0.64723807460746
 1  19.81898021602160  0.87783283288329 -2.32835496069607
 1  20.68804309430943 -1.03616541834183 -1.63484761816182
 1  19.04592731973197 -0.59129684808481 -1.76766484118412
 1  21.22606938553855  2.42665224432443  1.03990474407441
 1  22.11251899219922  1.14944152685269 -0.32459517451745
 1  21.12152880578058  2.78263575077508 -1.12942773907391
 1 -0.80999662476248 -3.63346609600960  3.00655900390039
 1 -1.36772645364536 -4.47913518721872  3.77536817341734
 1 -1.25745975927593 -3.12467094419442  3.63143729692969
 8 -11.99400777507751  3.65616041524152 -0.54094590829083
 1 -13.54663517501750  2.08284952505250 -0.77127773277328

