%nproc=4
%Mem=4GB
# td=(NStates=1) iop(3/107=0140000000,3/108=0140000000) iop(3/107=0140000000,3/108=0140000000) CAM-B3LYP/6-31G(d,p) 

TD

0 1
12 -5.69285079167917  1.25483035733573  0.21630023522352
 6 -5.08265865306531 -2.17136559985999 -0.36616348314832
 6 -3.45288407750775  1.13325361016102  2.80430580388039
 6 -6.14588338403840  4.50762402660266  0.62702291109111
 6 -8.01263703080308  1.13110396109611 -2.35947362086209
 7 -4.41470572387239 -0.31888007980798  0.99674101290129
 6 -4.28601212871287 -1.63062676427643  0.66891924152415
 6 -3.20936406090609 -2.44077738053805  1.52843720742074
 6 -2.99573274427443 -1.38372126302630  2.77827438353835
 6 -3.62574000140014 -0.13210583828383  2.18100268546855
 6 -3.47577061646165 -1.77813125452545  4.06531923132313
 6 -1.94616981018102 -2.75203261256126  0.66341164666467
 6 -0.95295693919392 -3.61703928452845  1.50138372637264
 6  0.21035613611361 -3.98085192589259  0.58490668536854
 8  0.37373743804380 -3.26345365896590 -0.41799803400340
 8  1.05662250795080 -4.77683730103010  1.28977358465847
 7 -5.00983179947995  2.62422179907991  1.49601983368337
 6 -4.10119220902090  2.37601502320232  2.46668727202720
 6 -3.63626313001300  3.69314781698170  3.18169872607261
 6 -4.40479103180318  4.62100362866287  2.56710598189819
 6 -5.27494359855986  3.99604769997000  1.53439953225323
 6 -2.67037240034003  3.72159953575358  4.29365355475548
 6 -4.47591412201220  6.07641506200620  2.90951045584558
 8 -3.85686573457346  6.53416130413041  3.82038593849385
 7 -6.96637043694369  2.65560545634563 -0.66752840914091
 6 -6.97197991279128  3.93282289948995 -0.38524021272127
 6 -7.83747893429343  4.59138586338634 -1.27927203670367
 6 -8.35329478277828  3.60851778167817 -2.14758370277028
 6 -7.70847973847385  2.44984099289929 -1.72727867436744
 6 -8.14198718961896  6.00927083648365 -1.28807831663166
 6 -9.28144250755076  3.69404980318032 -3.27343197599760
 6 -8.55448690239024  4.09625777197720 -4.65352175617562
 7 -6.56190460946095 -0.18458347604760 -0.96039113111311
 6 -7.36569609920992 -0.07516358495850 -1.95957016771677
 6 -7.58389589678968 -1.30580228382838 -2.76456897949795
 6 -6.74139368816882 -2.18989856165617 -2.05007117281728
 6 -6.06183459885989 -1.46684024912491 -1.08090422082208
 6 -8.63441889968997 -1.59394952095210 -3.77240413661366
 6 -6.23409707680768 -3.54487007090709 -2.00226378147815
 8 -6.55385978147815 -4.49326702510251 -2.67546381148115
 6 -5.06935549764976 -3.56116416901690 -0.84401672147215
 6 -5.38934641204120 -4.62529797089709  0.14365803760376
 8 -5.68566433803380 -4.40583959205921  1.30428679207921
 8 -5.12036173437344 -5.90514171057106 -0.27592073667367
 6 -5.27958552275228 -6.93825567886789  0.70728255805581
 6  2.35386635983598 -4.96297741794179  0.46983093749375
 6  3.39537407240724 -4.04113427432743  0.90579847964796
 6  3.97250664086409 -3.05619848994900  0.07678131313131
 6  3.56327066596660 -2.86322126342634 -1.34896440094009
 6  5.22956938273827 -2.34564961256126  0.57195099389939
 6  6.52065693699370 -2.71033395859586 -0.15430396299630
 6  7.64659998359836 -1.87767712321232  0.45271096159616
 6  9.04724554585458 -2.04116895049505 -0.19810759325933
 6  9.55619200090009 -3.47403804420442 -0.03841729942994
 6  10.03010358945895 -0.93272350975098  0.27115963146315
 6  11.30810811321132 -0.80961056795680 -0.54356312251225
 6  12.07661535013501  0.33676830433043 -0.07125027742774
 6  13.67535999179918  0.33505837573757 -0.53135789898990
 6  14.52905120412041 -0.84606400900090 -0.14281843274327
 6  14.23987992759276  1.73318949054906 -0.12215146994699
 6  15.59524371477148  2.13664169236924 -0.80395539053905
 6  16.09321190559056  3.58566331913191 -0.49037965116512
 6  17.42277752685269  4.00267810941094 -1.23655759095910
 6  17.07702029172917  4.10989588128813 -2.71138336253625
 6  17.72628203430343  5.40492575787579 -0.69484894379438
 1 -2.96790251305130  1.05746002140214  3.74302477087709
 1 -6.39923790259026  5.55348072847285  0.64223321502150
 1 -8.72569297649765  0.84897520042004 -3.01459693849385
 1 -3.72930399519952 -3.42186750215021  1.82414047484749
 1 -1.91859898379838 -1.18597625922592  3.01149242534253
 1 -3.01671145024502 -2.64480764196420  4.32789633363336
 1 -3.24075486818682 -1.02489239363936  4.77033906370637
 1 -4.56034854655466 -1.85196427732773  4.10523447394740
 1 -2.35954126782678 -3.25385490279028 -0.25026565036504
 1 -1.48513634603460 -1.78148726502650  0.48737685928593
 1 -0.80138557205721 -3.10333162876288  2.48032225092509
 1 -1.52048677027703 -4.45448257945795  1.82602440044004
 1 -1.61760187398740  3.29251877627763  4.14205011471147
 1 -2.28621961206121  4.71548875487549  4.71402766046605
 1 -3.14132712771277  3.09508050555056  5.14534954095410
 1 -5.16934999889989  6.70111430583058  2.29837515891589
 1 -10.00423955745574  2.77522817991799 -3.50740399209921
 1 -10.05542634053405  4.60945478957896 -3.08847913861386
 1 -9.43419321912191  4.35351376537654 -5.48683388568857
 1 -7.91358086748675  4.93897364276428 -4.47610756575657
 1 -7.98777862686269  3.17195655445545 -5.03158308310831
 1 -8.41881947154715 -1.05936647954795 -4.57169816811681
 1 -8.70371135413541 -2.78104150925093 -3.92782541954195
 1 -9.77892797229723 -1.22298912231223 -3.32766967366737
 1 -4.30810816821682 -4.00752557915792 -1.41474476137614
 1  2.65163629662966 -6.11655959895990  0.80786674357436
 1  2.27713845724573 -5.27732470857086 -0.33582703230323
 1  3.81640376267627 -4.36435571737174  1.86922192979298
 1  2.43119810651065 -3.23999962106211 -1.54108664966497
 1  3.42555716901690 -1.66901046034603 -1.64986745724572
 1  4.12834500850085 -3.22604633383338 -1.99950887678768
 1  4.80950099099910 -1.27916434043404  0.49219110261026
 1  5.27054558185819 -2.51299293169317  1.62973785408541
 1  6.68245577227723 -3.76378957105711  0.20457834183418
 1  6.43611377177718 -2.41906951595160 -1.32000259575958
 1  7.20872980428043 -0.83580690579058  0.36513375887589
 1  7.85649775267527 -2.07376395949595  1.59195358065807
 1  9.07271138043804 -1.72114038923892 -1.23019635773577
 1  8.83939845854585 -4.37972674407441 -0.31926571897190
 1  10.43926326712671 -3.79298350045005 -0.53863397689769
 1  9.62888194959496 -3.59031012251225  1.06871731443144
 1  9.55955510611061 -0.05917019081908  0.20731609540954
 1  9.75834593209321 -1.12375890979098  1.52878241824182
 1  11.78545368666867 -1.86056608850885 -0.37491186438644
 1  11.03244933163317 -0.48973187808781 -1.65127646124612
 1  11.78484951845185  1.37052148134813 -0.30652020722072
 1  12.00681550485048  0.32513370477048  1.01414969516952
 1  13.68421522222222  0.53417785008501 -1.63177541624162
 1  14.44714405270527 -1.13718193089309  1.00969664966497
 1  14.10303587458746 -1.77647666396640 -0.52808913041304
 1  15.49805079347935 -0.67730092829283 -0.36223311581158
 1  13.33226142034203  2.34120873997400 -0.35124691239124
 1  14.28182488278828  1.47468775797580  0.95239245314531
 1  16.31800345614561  1.24541315401540 -0.66169265996600
 1  15.44528011141114  2.11968588138814 -1.96045742544254
 1  15.35576698129813  4.23415879387939 -0.84364636273627
 1  16.11794456455646  3.60944758615862  0.62409230963096
 1  18.38341202260226  3.30386187738774 -1.11368044764476
 1  16.23785450585058  4.85012154105411 -2.90847320712071
 1  17.94007993149315  4.53826333963396 -3.22823742884288
 1  16.95963616381638  3.07519858985899 -3.14376241084108
 1  18.04480052725273  5.29423064056406  0.39341100530053
 1  18.62343986628663  5.63009716191619 -1.05646256065607
 1  17.07629918081808  6.23549305240524 -0.88396245754575
 1 -4.78476377777778 -7.83909334243424  0.13281974427443
 1 -6.34447887818782 -7.16591367796780  1.07355086258626
 1 -4.86004417301730 -6.76684826042604  1.68666312291229
 8 -7.69663725532553  6.87148364916492 -0.56349413341334
 1 -9.04577287438744  6.37535318021802 -2.07871355415542

