%nproc=4
%Mem=4GB
# td=(NStates=1) iop(3/107=0140000000,3/108=0140000000) iop(3/107=0140000000,3/108=0140000000) CAM-B3LYP/6-31G(d,p) 

TD

0 1
12 -5.69053055965597  1.18162303660366  0.26240484568457
 6 -4.96942732993299 -2.07305576887689 -0.38438530533053
 6 -3.47063585268527  1.12007229202920  2.81076644994499
 6 -6.24589338503850  4.50255351955196  0.68498870767077
 6 -7.96542230933093  1.14026487718772 -2.37796547004700
 7 -4.43236749004901 -0.30312850465047  1.15138647744774
 6 -4.28716224372437 -1.59791349294930  0.72055440504050
 6 -3.20698382288229 -2.34533783658366  1.49261362506251
 6 -2.92119529052905 -1.32445533643364  2.65063161926193
 6 -3.66034346174617 -0.01332396009601  2.18675326052605
 6 -3.48199123852385 -1.83704714611461  3.99623232263226
 6 -2.00029522272227 -2.68823623292329  0.70144545004500
 6 -1.01506314981498 -3.49011659225923  1.39903349134914
 6  0.20506560706071 -3.90484432513251  0.63295148984898
 8  0.46827689198920 -3.46437375097510 -0.41461769596960
 8  1.05547239293929 -4.70768038533853  1.19921452875288
 7 -4.98245906220622  2.58554793169317  1.52879311101110
 6 -4.06458854865487  2.34444186588659  2.51669227252725
 6 -3.78354785848585  3.59349785198520  3.19166972317232
 6 -4.58142869556956  4.50598212651265  2.61252052335234
 6 -5.33404950915091  3.93174126932693  1.54376046834683
 6 -2.92417778087809  3.83745112091209  4.32438662806281
 6 -4.62535906650665  6.03255067556756  2.89833933873387
 8 -3.96482653065307  6.67955584358436  3.73889778967897
 7 -6.89430323022302  2.58110800660066 -0.76265792209221
 6 -6.95028774357436  3.86868648584859 -0.29033072177218
 6 -8.00168535493549  4.56181290609061 -1.16735084458446
 6 -8.48796825012501  3.62699962986299 -2.11933087748775
 6 -7.78833772427243  2.41120712951295 -1.81387733423342
 6 -8.40664365526553  5.97355726512651 -1.06410591939194
 6 -9.46243060636064  3.82882328052805 -3.21327596039604
 6 -8.90158161186119  4.03674182038204 -4.62662906690669
 7 -6.38424684368437 -0.13256827452745 -1.12209730173017
 6 -7.39498902850285 -0.07141320992099 -2.06537074777478
 6 -7.55146265346535 -1.34599630323032 -2.71659418201820
 6 -6.64104365316532 -2.13528310011001 -2.10709687538754
 6 -6.01778019341934 -1.40082364746475 -1.12989912031203
 6 -8.51818727652765 -1.63887401340134 -3.80479737593759
 6 -6.17060072717272 -3.52362794669467 -1.97588114321432
 8 -6.59326372187219 -4.43732143054305 -2.65218148324833
 6 -5.10568913101310 -3.53809186178618 -0.93541586138614
 6 -5.35665314271427 -4.58175361646165  0.05693936573657
 8 -5.69099487108711 -4.38564757285729  1.23192955635564
 8 -5.15182488068807 -5.82325352175218 -0.35313845844584
 6 -5.32808037223722 -6.90989284258426  0.45566739653965
 6  2.27728870207021 -5.02648376857686  0.51415536993699
 6  3.42408694369437 -4.15085524642464  0.96310421022102
 6  4.08052744294429 -3.22880575067507  0.17077071207121
 6  3.77926226512651 -3.01607654895490 -1.31927143164316
 6  5.23100952675268 -2.31884693229323  0.84171797059706
 6  6.52269714101410 -2.72340526572657  0.06847831523152
 6  7.78707403100310 -1.77381673717372  0.52718840934093
 6  9.10369119041904 -1.99052388598860 -0.11897968046805
 6  9.62104848654866 -3.35096573697370  0.04801134343434
 6  10.07953853295330 -0.90794103150315  0.30658317381738
 6  11.50131743414341 -0.84332393929393 -0.31751051725173
 6  12.34515220382038  0.32283691119112  0.21321816941694
 6  13.74416687248725  0.37306217611761 -0.47545230843084
 6  14.57586588558856 -0.87640704330433 -0.13838798969897
 6  14.27106304590459  1.80910708230823 -0.19830908570857
 6  15.44150834123412  2.16126415461546 -1.09236423142314
 6  16.04170675507551  3.48714346714671 -0.68017863106311
 6  17.35465071417142  3.82936077767777 -1.41670560576058
 6  17.15625821552155  4.10431532323232 -2.92625484968497
 6  17.95079448554855  5.11045631093109 -0.73696315521552
 1 -2.87545326812681  1.03596787218722  3.64008447684768
 1 -6.65259323812381  5.67398277867787  0.77600659235924
 1 -8.63136354355436  1.08734903780378 -3.19402488128813
 1 -3.75166623142314 -3.14489980538054  1.85750381118112
 1 -1.85984310821082 -1.27825548714871  2.53466474257426
 1 -2.82218199729973 -2.65103826502650  4.17186073007301
 1 -3.41424221692169 -1.06458636303630  4.98808083788379
 1 -4.65989850155016 -2.06742582348235  3.95990994149415
 1 -2.20611592529253 -3.08813833113311 -0.20233085688569
 1 -1.56725455785579 -1.62404152045205  0.32481060266027
 1 -0.35169060256026 -3.07034833043304  2.27103132183218
 1 -1.46251097269727 -4.42890002120212  1.77518931693169
 1 -1.85704581838184  3.68371789618962  3.93493940364036
 1 -2.92512350245025  4.97587479347935  4.66748300600060
 1 -3.19422241724172  3.32774377187719  5.23662866886689
 1 -5.28413147704770  6.63410760516052  2.13331865326533
 1 -10.10930006350635  2.94040469756976 -3.12365561726173
 1 -10.14627542544254  4.66935077917792 -2.91276156685669
 1 -9.63474327412741  4.56182459645965 -5.24127933023302
 1 -8.02462197159716  4.80226997239724 -4.60646060106011
 1 -8.22818266726673  3.03973333213321 -4.98656858165817
 1 -8.28880647024702 -0.84584512741274 -4.52767376567657
 1 -8.38407939093909 -2.69473287838784 -4.12450508750875
 1 -9.53182326182618 -1.48343516691669 -3.30812771947195
 1 -4.28092544994499 -3.67545237183718 -1.46309959685969
 1  2.44199533253325 -6.06686462946295  0.71604756165617
 1  1.95223596699670 -4.96936391249125 -0.57518096769677
 1  3.64064618691869 -4.05739502130213  1.94189919751975
 1  2.56671165786579 -3.24054967606761 -1.44302684368437
 1  3.95795040834083 -2.06473003230323 -1.62015448594859
 1  4.37894006800680 -3.58333206240624 -1.74414334023402
 1  4.99659970087009 -1.25318174217422  0.87011889538954
 1  5.34202272957296 -2.55018665106511  1.84169905020502
 1  6.77270479717972 -3.77412060416042  0.19051693569357
 1  6.53700386078608 -2.53928153715372 -1.09231982748275
 1  7.46774570587059 -0.69881320642064  0.44670191569157
 1  7.87521962486249 -2.03241982508251  1.62045643094309
 1  8.82666677597760 -2.03334160936094 -1.22931626972697
 1  9.05367988668867 -4.14981375277528 -0.47092088448845
 1  10.65422476327633 -3.51391559365937 -0.41134124762476
 1  9.62977203860386 -3.61538262976298  1.10507094979498
 1  9.90019917051705  0.11241696789679  0.22197756155616
 1  10.44741483898390 -0.97256379027903  1.52400194019402
 1  12.08988412971297 -1.77234726662666 -0.45644001720172
 1  11.37619370607061 -0.79385229012901 -1.40985231883188
 1  11.67586862036204  1.19394382358236  0.23442388718872
 1  12.42769759305930  0.08663985538554  1.40940922112211
 1  13.51342814351435  0.53509794209421 -1.68249048774877
 1  14.48838817711771 -0.85097331003100  0.91860754075408
 1  14.03407897889789 -1.65144416071607 -0.63064938643864
 1  15.53535452385239 -0.74097729592959 -0.46082297479748
 1  13.30008820302030  2.49397401650165 -0.27465925362536
 1  14.42964966526653  1.94926521572157  0.81712892679268
 1  16.22068372417242  1.34138275097510 -0.85951244194419
 1  15.25403098649865  2.21782569536954 -2.03124450415041
 1  15.57254865946595  4.37578295629563 -0.70152215031503
 1  16.35705847594760  3.46683332473247  0.48380828122812
 1  18.15011869326933  3.01075256645665 -1.24801388098810
 1  16.46494721512151  4.82905943484348 -3.19341170097010
 1  18.19594551805181  4.33639315261526 -3.39998460356036
 1  16.83366356655666  3.25546661666167 -3.17614564916492
 1  18.17338338553855  4.83691490899090  0.26096776097610
 1  19.00278780108011  5.36320047224722 -1.06092300670067
 1  17.17924947584758  6.02131163426343 -0.72959702100210
 1 -5.42689799119912 -7.89846928002800 -0.06697023472347
 1 -6.34490892119212 -6.87666475307531  0.93342685018502
 1 -4.53157132573257 -7.02504408000800  1.28050250685069
 8 -7.74008159975998  6.88727522832283 -0.55204298829883
 1 -9.36571486858686  6.16305195009501 -1.60585626842684

