%nproc=4
%Mem=2GB
# td=(NStates=1) iop(3/107=0140000000,3/108=0140000000) iop(3/107=0140000000,3/108=0140000000) CAM-B3LYP/6-31G(d,p) 

TD

0 1
12 -6.73041561366137  0.53702284638464  0.20305792529253
 6 -4.31791889838984 -1.91297971977198  0.37401767876788
 6 -4.31722353775378  2.89536116921692  0.85792867446745
 6 -9.16633933863386  3.18923294739474 -0.06010551225123
 6 -9.21487958555856 -1.75721875147515 -0.37675773447345
 7 -4.71011608350835  0.52429182688269  0.54941397349735
 6 -3.82094936053605 -0.71692139893989  0.56372692809281
 6 -2.31616503510351 -0.42943470267027  0.96289835213521
 6 -2.44942490829083  1.14606475527553  1.08365052755276
 6 -4.01599786268627  1.48513859905991  0.72293706840684
 6 -1.86264254995500  1.54686648254825  2.49029359215922
 6 -1.55845459385939 -1.00612317571757 -0.13918259195920
 6 -0.05849396769677 -1.03249495609561  0.19440851435143
 6  0.69651073027303 -1.20524776167617 -1.09561773557356
 8  0.40541060916092 -0.97907051955196 -2.38549954015402
 8  1.79982026862686 -1.90002030063006 -0.66811173367337
 7 -6.84304604680468  2.65244561456146  0.44810855875588
 6 -5.66625718661866  3.45615425862586  0.56450274647465
 6 -5.85426964216422  4.83493317811781  0.55900076867687
 6 -7.33358407180718  4.93453954445445  0.43663024632463
 6 -7.80117182108211  3.55753456185619  0.22009684108411
 6 -4.85248016831683  5.96423385388539  0.57051471947195
 6 -8.04655621692169  6.14313123322332  0.17765728942894
 8 -7.74148806500650  7.30402201880188  0.35022287908791
 7 -8.85938949244924  0.60805166436644 -0.03414606370637
 6 -9.71226489888989  1.76437117241724 -0.21904295659566
 6 -10.93651028132813  1.44605447654765 -0.71231701290129
 6 -10.98932328982898  0.05684658905891 -0.67958881438144
 6 -9.75812747604760 -0.53535169836984 -0.33776585328533
 6 -11.99101587688769  2.47801399449945 -0.68780343114311
 6 -12.21378449894990 -0.80692425472547 -0.89157729142914
 6 -12.59156601870187 -0.65490765596560 -2.39717251195120
 7 -6.79735621852185 -1.42922548384838 -0.07516016051605
 6 -7.87490015161516 -2.29047904460446 -0.24360755875588
 6 -7.47916550165017 -3.65106242864286 -0.39982099219922
 6 -6.12196781798180 -3.53380254115412 -0.12808106870687
 6 -5.79515580428043 -2.20277909240924  0.06038222252225
 6 -8.25297382088209 -4.89261663946395 -0.66916973287329
 6 -4.88509471397140 -4.30815661376138 -0.01007298159816
 8 -4.64044579327933 -5.41728226652665 -0.19680917431743
 6 -3.76800052545255 -3.30142070127013  0.40481512871287
 6 -3.05945945684568 -3.51865804130413  1.80108982198220
 8 -3.65449068916892 -3.85688242304230  2.82785145494549
 8 -1.57216889178918 -3.47822412771277  1.77748768796880
 6 -0.97929645174517 -3.98615370547055  2.82336676187619
 6  2.91474336713671 -2.31268644554455 -1.62055329942994
 6  4.14027779517952 -1.40451745284528 -1.21121665396540
 6  5.27172792819282 -1.26733360476048 -1.97117331893189
 6  5.34615859965997 -1.97467060176018 -3.40693767596760
 6  6.24034785938594 -0.18899655255526 -1.67835439393939
 6  7.47852654665467 -0.85483126522652 -1.11428816611661
 6  8.48659121942194  0.22098773337334 -0.67174565506551
 6  9.74453754315432 -0.45710263056306  0.10978267256726
 6  9.25449296559656 -1.25072388708871  1.34159852865287
 6  10.86210854085409  0.50427528172817  0.34485932433243
 6  12.08699396989699 -0.19755844864486  0.21760007120712
 6  13.21787332993299  0.84868214291429  0.43506640504050
 6  14.69028536373637  0.12263554165417  0.65335999809981
 6  14.78621360946095 -0.45024730523052  2.04710463446345
 6  15.78305793419342  1.28044294629463  0.30529373467347
 6  17.05564504260426  0.77441266566657  0.16695982208221
 6  18.31382092949295  1.86687387858786 -0.06281642844284
 6  19.75657785888589  1.25673416821682 -0.26770685438544
 6  20.07678748004800  0.31244667496750 -1.58060385158516
 6  20.81154832373237  2.30013143114311 -0.01035613151315
 1 -3.46651729002900  3.54718596959696  0.81579098079808
 1 -9.88641262376238  4.09226831193119 -0.35739937383738
 1 -10.36532902450245 -2.70404080338034 -0.08428125402540
 1 -2.15423794059406 -1.05917353515352  2.04922497079708
 1 -1.59164850345035  1.60337081328133  0.43912036543654
 1 -0.83895527922792  1.33213152755276  2.43673438453845
 1 -2.15608378227823  2.58827740414041  2.65208132593259
 1 -2.58764109660966  1.21874976027603  3.25354122322232
 1 -1.83387240754075 -2.01448272127213 -0.60043783058306
 1 -1.83912908190819 -0.24581605450545 -0.95181497229723
 1  0.54751274957496 -0.15469690299030  0.57176304150415
 1  0.23186946714671 -2.06720305410541  0.66020625272527
 1 -3.74616914731473  6.18489631753175 -0.03527857015702
 1 -5.27152743334333  6.87378005390539  0.42666957305731
 1 -4.30641166936694  6.05519448044804  1.62709048134813
 1 -9.25954896899690  6.03585869506951 -0.41517789358936
 1 -11.87127668126813 -1.84548541604160 -0.89409383658366
 1 -13.14355057005701 -0.58483208340834 -0.55543317971797
 1 -13.27822564566457 -1.60257237263726 -2.47752486958696
 1 -13.33417038083808  0.35596301780178 -2.47379954945495
 1 -11.23128995339534 -0.46235955295530 -2.85624223162316
 1 -8.76867605090509 -4.66318287388739 -1.68159038703870
 1 -7.42693790839084 -5.92407241984198 -0.53461311321132
 1 -8.96005328532853 -5.11060302150215 -0.02900829132913
 1 -2.99117869926993 -3.23350707560756 -0.35346365316532
 1  3.12930454585459 -3.35412268606861 -1.57233295039504
 1  2.41045533433343 -2.03709962496250 -2.49496973227323
 1  3.98821614931493 -1.06339908830883 -0.20753715211521
 1  4.49168222522252 -1.25343881638164 -3.82797291229123
 1  6.56996057445745 -1.82774144954495 -3.91802302620262
 1  4.82897672507251 -2.88869148344834 -3.37732191599160
 1  6.50565098699870  0.50972631003100 -2.44810742794279
 1  5.90585569496950  0.81978752655266 -0.97983224662466
 1  7.25374655355535 -1.40337853495350 -0.32266054445445
 1  7.86660205860586 -1.37900669096910 -1.83265274117412
 1  8.73032516391639  0.81793238803880 -1.82984576987699
 1  8.44895339343934  1.13213840204020  0.03652936133613
 1  10.39962240934093 -1.01114855855586 -0.75957311491149
 1  8.43020526482648 -2.08778759445945  1.18612697349735
 1  10.00164623402340 -1.68144202540254  1.69922181358136
 1  9.03584679627963 -0.71897311971197  2.10239154425443
 1  10.72725636343634  1.24931769166917 -0.24772194379438
 1  10.92845259185919  0.91145002060206  1.30797467776778
 1  11.93464100630063 -0.80680311981198  0.82544622792279
 1  12.15454760876088 -0.78966718731873 -0.58319131663166
 1  13.54463933393339  1.42069161416142 -0.58155706030603
 1  12.94487653245324  1.63386763806381  1.54584037343734
 1  15.02200362616262 -0.61735925192519 -0.08511670287029
 1  14.75537543744374  0.51593198869887  3.02204497749775
 1  13.85270254375438 -1.34025169706971  2.15202270037004
 1  15.88120515361536 -0.75664924802480  2.17252373007301
 1  15.62914404930493  1.58770876427643 -0.65432540724072
 1  15.73677771037104  1.76566610211021  1.21961028422842
 1  17.40563187828783  0.64173734433443  1.17408759545955
 1  17.31263878807881 -0.22709454025403 -0.47821919931993
 1  18.25354036113612  2.19856640444044 -1.24773776207621
 1  18.34608460456046  2.37392129902990  0.54297096759676
 1  20.14181674287429  0.60972381858186  0.58591194199420
 1  20.21802012001200  1.17314236383638 -2.44829695489549
 1  20.90825511551155 -0.25654745654565 -1.71376550995099
 1  19.06407913491349 -0.50532825122512 -1.42472054675467
 1  20.35518229682968  3.08422800190019  0.99119987358736
 1  21.91900964126413  1.65485206790679  0.07023430843084
 1  20.98928558145814  2.79612709990999 -1.05356015231523
 1  0.07266164106411 -4.10981373077308  2.30327867586759
 1 -1.27326700770077 -4.83265053875388  3.21380201680168
 1 -0.77107112041204 -3.17874635173517  3.48507266046605
 8 -11.89278765306531  3.74295909510951 -0.51845365906591
 1 -12.83540405190519  2.01830307040704 -0.91184178917892

