%nproc=4
%Mem=4GB
# td=(NStates=1) iop(3/107=0140000000,3/108=0140000000) iop(3/107=0140000000,3/108=0140000000) CAM-B3LYP/6-31G(d,p) 

TD

0 1
12 -5.63113462006201  1.18123299759976  0.26161476667667
 6 -5.10114050125012 -2.12391085438544 -0.25629249604960
 6 -3.47322611171117  1.22812309710971  2.78584395769577
 6 -6.16164496019602  4.54523778797880  0.67998820762076
 6 -8.07123289038904  1.10579142984298 -2.32723039653965
 7 -4.45001925522552 -0.31124931673167  1.20100143894389
 6 -4.21581510901090 -1.63530723232323  0.75865821542154
 6 -3.22683580808081 -2.30013331613161  1.58765312901290
 6 -2.95293846484648 -1.31686457735774  2.68141469756976
 6 -3.68036546394640  0.04896226852685  2.16838142334233
 6 -3.47040007940794 -1.66778021942194  4.03674637403740
 6 -2.02278747194719 -2.51102851215122  0.73230853635364
 6 -0.93892553605361 -3.44104168476848  1.45040862886289
 6  0.18065316581658 -3.91319516021602  0.46387458215822
 8  0.35388545284528 -3.48227554115412 -0.66927316151615
 8  1.02560940664066 -4.65393501080108  1.21743635093509
 7 -4.94087490379038  2.62999237613761  1.52935316701670
 6 -3.98417050685068  2.49669709140914  2.52439304260426
 6 -3.65778528222822  3.74217271947195  3.17612816901690
 6 -4.50043059575958  4.64085561386139  2.58142741404140
 6 -5.22616872107211  3.99410750595060  1.48614470677068
 6 -2.82175753885389  3.90217759355936  4.30289447884789
 6 -4.62165869646965  6.05570299079908  2.86769627442744
 8 -4.07737778577858  6.60626851485149  3.75690959085909
 7 -6.90473427332733  2.57907780358036 -0.61571322762276
 6 -6.97604031883188  3.95223484068407 -0.36785847454745
 6 -7.86373155955596  4.55974269906991 -1.27851196069607
 6 -8.42540199349935  3.60068699859986 -2.04904384878488
 6 -7.84193308380838  2.34614062286229 -1.65412135863586
 6 -8.35425841674168  5.94808471787179 -1.20065957475748
 6 -9.36522088538854  3.74983538173817 -3.22632726552655
 6 -8.77635908960896  4.08411655785579 -4.62550895489549
 7 -6.47165558455846 -0.10305532323232 -1.03631872387239
 6 -7.37075660526053 -0.04006007460746 -2.08736294699470
 6 -7.56395390259026 -1.37112881648165 -2.72816533913391
 6 -6.69368891769177 -2.22541211301130 -1.96956312201220
 6 -6.03716213161316 -1.42288585368537 -0.99267539793979
 6 -8.48894435223522 -1.77888801480148 -3.87471436763676
 6 -6.18282194929493 -3.56707229112911 -1.98391194629463
 8 -6.40018441394139 -4.55528322672267 -2.66630289538954
 6 -5.01804036613661 -3.50071812441244 -0.85117743754375
 6 -5.26438391579158 -4.74847028812881  0.20212388418842
 8 -5.63680945254525 -4.42523153125313  1.30830719411941
 8 -5.00130982918292 -5.91325252165216 -0.44908805340534
 6 -5.38130569476948 -6.99246109940994  0.43458528832883
 6  2.26236720992099 -5.10888200840084  0.45802975737574
 6  3.37867240224022 -4.12728288918892  0.79868776857686
 6  4.12033142334233 -3.27890076017602  0.04378801380138
 6  3.74481882078208 -3.10143508480848 -1.38830833533353
 6  5.21031745754575 -2.49472452005201  0.68055185398540
 6  6.54999987128713 -2.67942086728673  0.10393186058606
 6  7.73421874547455 -1.86080543604360  0.58401409190919
 6  9.04221504280428 -1.99659449304930 -0.19550733323332
 6  9.65172155385539 -3.32553319371937 -0.05903936163616
 6  9.96087666676668 -0.76004624202420  0.35584810031003
 6  11.23621092349235 -0.75901550845085 -0.32335110131013
 6  12.20331802040204  0.40206483398340  0.06189303690369
 6  13.60951340714071  0.51076594649465 -0.56261102430243
 6  14.41017931693169 -0.81116051865187 -0.39026317721772
 6  14.27106304590459  1.75963213481348 -0.19665892069207
 6  15.58413260366036  2.08032606080608 -0.94600959595960
 6  16.02574515891589  3.48799355215522 -0.62530314351435
 6  17.42381763086309  3.83582142374237 -1.11653558875888
 6  17.26219880958096  3.89839473117312 -2.74121634583458
 6  17.92419182528253  5.13828909420942 -0.64354381328133
 1 -2.65190091289129  1.14501877727773  3.60447091549155
 1 -6.30492847164717  5.62398777917792  0.50819981168117
 1 -8.71061146834684  1.12610291319132 -3.11923740254025
 1 -3.64595566036604 -3.05774108950895  2.10584864566457
 1 -1.83256037993799 -1.19756741834183  2.81305258135814
 1 -3.01336111521152 -2.72647580878088  4.29268281228123
 1 -3.08632942564256 -1.14558446284628  5.12589461926193
 1 -4.58186069776978 -1.65420450135013  4.11076502700270
 1 -2.19677499119912 -3.27422693999400 -0.11982260606061
 1 -1.54362219461946 -1.63533264956496  0.30819894149415
 1 -0.51951738523852 -3.11674296989699  2.49324354305431
 1 -1.46829155075508 -4.33079021022102  1.64617641564156
 1 -1.81132124592459  3.14079360376038  4.26399230893089
 1 -2.72728371847185  4.98751595759576  4.55556181388139
 1 -3.26238923392339  3.36733773127313  5.44105911191119
 1 -5.38934199809981  6.65275947034703  2.29021434283428
 1 -10.18219735323532  2.84966562366237 -3.34390764246425
 1 -10.16364716261626  4.62568641274127 -3.17516780748075
 1 -9.55095489528953  4.20597901190119 -5.28609381168117
 1 -8.26899640904090  5.08597834323432 -4.46166612161216
 1 -8.19290913991399  3.32071142994299 -4.95007493229323
 1 -8.43269085868587 -0.93654419731973 -4.76062706100610
 1 -8.29349033203320 -2.71217462256226 -4.32405504250425
 1 -9.52813289278928 -1.68564538793879 -3.75856276297630
 1 -4.10088744614461 -3.76561138773877 -1.46715000190019
 1  2.54968610161016 -6.12833077607761  0.90851680858086
 1  2.06865760916092 -5.12674965106511 -0.51227467706771
 1  3.86248837113711 -4.31789107090709  1.83508851645164
 1  2.66670165686569 -3.22239786088609 -1.55248778977898
 1  4.01429604290429 -2.29441300060006 -1.85108757925793
 1  4.45724789878988 -3.62442617181718 -2.16148507440744
 1  4.93754379527953 -1.44788121212121  0.51275315881588
 1  5.23643217051705 -2.41380301270127  1.70822570287029
 1  6.76768429512951 -3.70718391049105  0.38888677267727
 1  6.33982414281428 -2.55467307630763 -0.98813940944094
 1  7.39146807810781 -0.75849917501750  0.70757800330033
 1  7.66225832873287 -1.94707129022902  1.78833321862186
 1  8.76439054835484 -1.80572884808481 -1.20538387648765
 1  8.88191270997100 -4.03459223062306 -0.35908970137014
 1  10.37623696449645 -3.66168037013701 -0.89461957545755
 1  10.19084814621462 -3.64801589308931  0.81277171987199
 1  9.35576472707271  0.22014774097410  0.33036840064006
 1  9.84306440394039 -0.94522105600560  1.48530807080708
 1  11.90126526782678 -1.70538056995700 -0.25657003020302
 1  10.90107619431943 -0.73094599949995 -1.39841117471747
 1  11.68072910641064  1.44659908910891 -0.04198375357536
 1  12.37535235853585  0.39454064546455  1.19483776397640
 1  13.44793159385939  0.67464189648965 -1.79436167486749
 1  14.62069140744074 -1.22966117881788  0.71290697069707
 1  14.20102567356736 -1.83764278057806 -0.90744706620662
 1  15.20752174057406 -0.56828002620262 -0.93013990649065
 1  13.48565675987599  2.58437305640564 -0.60280206790679
 1  14.22149885018502  1.87698798799880  1.08006522042204
 1  16.32869452525253  1.28870748344834 -0.62422891359136
 1  15.43404898829883  1.88199211201120 -1.90622200190019
 1  15.30804220882088  4.12080745874587 -1.09054105220522
 1  16.15667843794380  3.65398203960396  0.56451635203520
 1  18.16203988538854  3.01684317551755 -0.80815989558956
 1  16.41524224462446  4.42492902180218 -2.97805016481648
 1  18.15328125162516  4.17999751305131 -3.16956156125613
 1  17.08308850905091  2.71057212721272 -3.04510254485449
 1  18.01263731093109  5.00111132863286  0.45727739193919
 1  18.88252577487749  5.50963511571157 -1.08028494289429
 1  17.12821437233723  5.97280678377838 -0.93316737803780
 1 -5.31397669906991 -7.71409084218422 -0.39942348004800
 1 -6.43119755005501 -6.60132721932193  0.83035654315432
 1 -4.55891406000600 -7.03401497709771  1.27185164176418
 8 -7.82800039163916  6.83794029482948 -0.47709549354935
 1 -9.24777307440744  6.16825247014701 -1.82482816561656

