%nproc=4
%Mem=4GB
# td=(NStates=1) iop(3/107=0140000000,3/108=0140000000) iop(3/107=0140000000,3/108=0140000000) CAM-B3LYP/6-31G(d,p) 

TD

0 1
12 -5.67841934853485  1.24605948024802  0.18006661186119
 6 -5.00712109930993 -2.09218768206821 -0.37949481628163
 6 -3.27356614571457  1.23205349014901  2.79243461676168
 6 -6.10117891359136  4.49723298749875  0.65106531533153
 6 -7.89704547164716  1.18983983468347 -2.40660833433343
 7 -4.26919117241724 -0.12307049884989  0.98052939173917
 6 -4.20967449494950 -1.51229493109311  0.61582393199320
 6 -3.18640176467647 -2.30174347714771  1.45205956965697
 6 -2.89284245524552 -1.28962185308531  2.66683323942394
 6 -3.47527495489549  0.01738911121112  2.10170475567557
 6 -3.54966800620062 -1.78311175257526  3.95973867326733
 6 -1.99600479367937 -2.62480989028903  0.56702200770077
 6 -0.98876051955196 -3.59954753535354  1.41027461546155
 6  0.19555465596560 -4.00717455815582  0.54324251895190
 8  0.40459052335234 -3.56534384798480 -0.57886412061206
 8  0.98294514021402 -4.88711832913291  1.31515612291229
 7 -4.94913572987299  2.63231260816082  1.56792702440244
 6 -3.91647373717372  2.46931435313531  2.46034663796380
 6 -3.76276578027803  3.70051855405541  3.17653821002100
 6 -4.48376892959296  4.61610313861386  2.54527379867987
 6 -5.23085919011901  3.94816291149115  1.52136822912291
 6 -2.76057142024202  3.85908328412841  4.28850303970397
 6 -4.62076860746075  5.99137655815582  2.91438094289429
 8 -4.11998204620462  6.56671455945595  3.83894779467947
 7 -6.88599239913991  2.60013990979098 -0.65009666596660
 6 -6.84619733453345  3.99375899309931 -0.39861154985499
 6 -7.79850503690369  4.58661538633863 -1.19602371187119
 6 -8.37561701500150  3.69170610051005 -2.03130207460746
 6 -7.77186607710771  2.39858586738674 -1.68681462796280
 6 -8.19368235913591  6.03656356575658 -1.11369087788779
 6 -9.32112647594760  3.81738213641364 -3.20755538833883
 6 -8.60673212691269  4.08224637083708 -4.49930633463346
 7 -6.35522394139414 -0.04547956565657 -1.12491758375838
 6 -7.27803733333333 -0.03789985858586 -2.13417762846285
 6 -7.47353486068607 -1.30676237983798 -2.75768829142914
 6 -6.54641419021902 -2.14028360016002 -2.06836300200020
 6 -6.05886430183018 -1.38071163626363 -1.06086221662166
 6 -8.46185164296430 -1.67541766776678 -3.88694559075908
 6 -6.15472914001400 -3.53223880778078 -1.98168172327233
 8 -6.49285368086809 -4.49294699309931 -2.65671193629363
 6 -4.92026058815882 -3.52050010261026 -0.86561888168817
 6 -5.23716119351935 -4.61220666176618  0.17371104290429
 8 -5.78165393699370 -4.49375838393839  1.27562392579258
 8 -4.77108680688069 -5.81713290969097 -0.34817796239624
 6 -5.00942850705071 -6.96455830913091  0.48614044384438
 6  2.23999497269727 -5.26826794699470  0.67341129552955
 6  3.40069460446045 -4.27235739663966  0.98789668946895
 6  4.01838122832283 -3.32536540664066  0.23945758075808
 6  3.63358769766977 -3.15268020932093 -1.21285078957896
 6  5.08619504530453 -2.52695774337434  0.74426822562256
 6  6.39507437873787 -2.76519944514451  0.03395486288629
 6  7.52954827842784 -1.88210756625663  0.47400309080908
 6  8.92819364066407 -2.07920275387539 -0.03083086558656
 6  9.47234361606161 -3.40034067446745  0.10393693599360
 6  9.90490106920692 -0.98504874227423  0.50853336883688
 6  11.25272257465747 -0.91094070097010 -0.07949671587159
 6  12.10731842044204  0.33449807730773  0.29223607120712
 6  13.39686214201420  0.40680555045505 -0.47406216941694
 6  14.35180347934793 -0.68320772337234 -0.31508565946595
 6  14.05906184578458  1.82451862346235 -0.30049930473047
 6  15.26819100950095  2.21556958515852 -1.17559255425543
 6  15.90405298969897  3.58869362216222 -0.66339695289529
 6  17.20863611271127  3.98516635823582 -1.41180511571157
 6  17.00017260696070  4.07328221992199 -2.87928015221522
 6  17.74210361646164  5.27934319961996 -0.79447890679068
 1 -2.43609933273327  1.21773604900490  3.46502697109711
 1 -6.34230220902090  5.65476085648565  0.57971696339634
 1 -8.79925033223322  1.26633693659366 -2.94827030583058
 1 -3.47704876967697 -3.19535485088509  1.76128418921892
 1 -1.83958108200820 -1.01097875947595  2.97242851895190
 1 -2.97665744484448 -2.69063222442244  4.31426497049705
 1 -3.44847564026403 -0.90017992239224  4.70345237503750
 1 -4.69694220592059 -1.89064814571457  3.99056300680068
 1 -2.18844415811581 -3.12778229552955 -0.43232385618562
 1 -1.52513034543454 -1.69067818411841  0.24322244384439
 1 -0.48105353885389 -3.24493578917892  2.29028324702470
 1 -1.63769849144914 -4.37717484868487  1.86837863586359
 1 -1.68999911371137  3.76756628102810  4.00178608830883
 1 -2.86459744984498  4.87363456945695  4.80455671337134
 1 -3.02371536653665  3.23611460896090  5.07254226022602
 1 -5.43250631453145  6.55092928732873  2.28774409580958
 1 -9.60070920442044  2.87587824492449 -3.10025327702770
 1 -10.13596439433944  4.66238008210821 -2.93841413211321
 1 -9.40203000280028  4.35642405640564 -5.19362456475648
 1 -7.86568607800780  4.92843258865887 -4.42023197819782
 1 -8.25624547354735  3.00448980778078 -4.79541946674667
 1 -8.02602019161916 -1.15224576747675 -4.90254125242524
 1 -8.30032101510151 -2.65850925602560 -4.18350098709871
 1 -9.44066414591459 -1.33237006040604 -3.51865877257726
 1 -4.07519487688769 -4.06259108570857 -1.31283457035704
 1  2.43171430443044 -6.25227317031703  0.96203216011601
 1  2.16239698309831 -5.32180915701570 -0.49221267086709
 1  3.34902702500250 -4.31877115891589  2.03572858045805
 1  2.51279626632663 -3.29133475457546 -1.59749229022902
 1  3.89568418171817 -2.04457801710171 -1.69469193969397
 1  4.29554172817282 -3.79555328452845 -1.81974089999000
 1  4.77163720462046 -1.54856128012801  0.62777466096610
 1  5.17144567186719 -2.59109074147415  1.93733861416142
 1  6.56783431013101 -3.93776696879688  0.27310519451945
 1  6.43586374677468 -2.63949155815582 -0.99094969046905
 1  7.11381031233123 -0.82666599169917  0.46334357985799
 1  7.59823192609261 -2.17837442054205  1.47560194549455
 1  8.76357046634664 -1.94072234743474 -1.07483082118212
 1  8.64104862356236 -4.13767253865387 -0.32007579998000
 1  10.27224656545655 -3.52023622572257 -0.42472258575858
 1  9.74475353675368 -3.78866995849585  0.96624706740674
 1  9.42353150375038 -0.12665693949395  0.43481884568457
 1  9.99962005950595 -1.26020255415542  1.51174071407141
 1  11.88374351565156 -1.73127315921592  0.14365999279928
 1  11.13810989768977 -0.82704560946095 -1.17390872447245
 1  11.58261929542954  1.24573900310031  0.21526197099710
 1  12.41805662896290  0.24262545394539  1.27817609780978
 1  13.14052085278528  0.46920135243524 -1.49477171587159
 1  14.77558689698970 -0.78936714941494  0.72934861486149
 1  14.06312188318832 -1.79757877417742 -0.67629395089509
 1  15.27059804820482 -0.39094229242924 -0.91886877937794
 1  13.28346654085409  2.69194381348135 -0.43975576327633
 1  14.44115081538154  1.84424471367137  0.73113032693269
 1  16.11491314711471  1.35843445614561 -1.37704419511951
 1  15.12836842024203  2.24481839463946 -2.11287266696670
 1  15.04428583318332  4.23353873187319 -0.92806480458046
 1  15.90664343444345  3.59565620702070  0.44392429282928
 1  17.90095377677768  3.16128761996200 -1.16036511611161
 1  16.17061778217822  4.78018454735474 -3.11776413621362
 1  17.98116403990399  4.29932944624462 -3.55525013011301
 1  16.76026622682268  3.02863393339334 -3.23783181778178
 1  17.80106615381538  5.04771598909891  0.37929959415942
 1  18.76890441274127  5.50430458265827 -1.01062797719772
 1  17.18143969486949  6.25173467656766 -1.07736179747975
 1 -4.68249355075508 -7.82244167726773 -0.09617315501550
 1 -5.95127955825583 -7.00652773937394  0.62722623012301
 1 -4.44392256085608 -6.84730630623062  1.37183163976398
 8 -7.72891048264827  6.84340084088409 -0.33246103010301
 1 -9.05670396749675  6.26306195109511 -1.71435711851185

