%nproc=4
%Mem=2GB
# td=(NStates=1) iop(3/107=0140000000,3/108=0140000000) iop(3/107=0140000000,3/108=0140000000) CAM-B3LYP/6-31G(d,p) 

TD

0 1
12 -6.75952852495250  0.58017716181618  0.10852847234723
 6 -4.49891699819982 -2.13030145194520  0.28367864486449
 6 -4.14675649104910  2.75932756585659  0.96402928452845
 6 -8.78568127282728  3.22155617971797 -0.24674417611761
 6 -9.48832693029303 -1.69098212781278 -0.73844390309031
 7 -4.75469054095410  0.28765816351635  0.67625665776578
 6 -3.97881514711471 -0.89101880868087  0.66487704310431
 6 -2.51667508610861 -0.65125688488849  1.09550161246125
 6 -2.43070303610361  0.81710185898590  1.28244040654065
 6 -3.85183144604460  1.35942602780278  0.95537031173117
 6 -1.95277156285629  1.43752554845485  2.65718028082808
 6 -1.66190493889389 -1.10336289968997  0.06832815911591
 6 -0.19111723002300 -1.27776948354835  0.49825889938994
 6  0.76309738893889 -1.38439567646765 -0.64080225402540
 8  0.82124219231923 -0.83795640814081 -1.71845283548355
 8  1.85267555415542 -2.07591789038904 -0.10269519201920
 7 -6.62486422862286  2.58605897589759  0.45845959385939
 6 -5.45373593449345  3.28647729092909  0.74292058825883
 6 -5.57776199139914  4.79668935373537  0.65389025762576
 6 -6.92505321872187  4.93272936343634  0.24998158145815
 6 -7.53310501440144  3.53599240764076  0.15917074847485
 6 -4.69960488078808  5.92570000050005  0.80401806980698
 6 -7.79361092239224  6.23582050215022  0.04886441014101
 8 -7.17853176937694  7.34138575517552  0.15038289508951
 7 -8.77893144664466  0.66981784098410 -0.37229987908791
 6 -9.32694636703670  1.86149088438844 -0.42179323162316
 6 -10.85555218551855  1.70697056815682 -0.85304108530853
 6 -10.91173553105311  0.25818672307231 -0.93096395189519
 6 -9.59645130843084 -0.37318548174817 -0.56316839353935
 6 -11.92558933423342  2.69826601970197 -0.79509416021602
 6 -12.18390151065107 -0.33547711001100 -1.35962409610961
 6 -12.24694155625563 -0.51348351355136 -2.80195298999900
 7 -6.99261574447445 -1.39655221652165 -0.09260190469047
 6 -8.20475313691369 -2.22875287198720 -0.45465866386639
 6 -7.80332791789179 -3.73665098749875 -0.50931194129413
 6 -6.38618423962396 -3.71095025592559 -0.16589485008501
 6 -5.89683597229723 -2.30572938743874 -0.11557537323732
 6 -8.57998652215221 -4.89810718851885 -0.94576739263926
 6 -5.20360656515652 -4.57847364546455 -0.00096207050705
 8 -5.07735948464846 -5.74510504880488 -0.04255374877488
 6 -3.98906263166317 -3.52724328352835  0.44401904910491
 6 -3.75840935183518 -3.90384656015602  1.64656436943694
 8 -4.23492873297330 -4.35942267706771  2.79397806760676
 8 -2.36027770267027 -3.87260356565657  1.81295123432343
 6 -1.48522704480448 -4.07756284638464  3.09185361056106
 6  2.94890678347835 -2.39901507840784 -1.09365060916092
 6  4.10412417981798 -1.35954295539554 -0.73354888718872
 6  5.10511126652665 -0.98285515691569 -1.62697889948995
 6  5.27634161796180 -1.62566570127013 -2.97742472467247
 6  6.12597642224222 -0.15565321822182 -1.29431599009901
 6  7.35577427142714 -0.86846262836284 -0.73898063536354
 6  8.52322488278828  0.24641027562756 -0.59402788328833
 6  9.83754684408441 -0.52721964226423 -0.04610291599160
 6  9.49221673797380 -1.28031684638464  1.49194356315632
 6  10.90489281928193  0.61601645584558  0.10835567396740
 6  12.33497876837684 -0.00968966176618  0.12078038923892
 6  13.39345088768877  1.06455373007301  0.25025792419242
 6  14.76251258645865  0.50483376147615  0.18931359345935
 6  14.96602159025903 -0.16654893539354  1.53037296129613
 6  15.96594622302230  1.54519942194219 -0.06753354805481
 6  17.48542802090209  0.95374059845985 -0.00654752865287
 6  18.52687223462346  2.02936012721272 -0.17562770957096
 6  19.84899710081008  1.48217671247125 -0.40954103780378
 6  20.03954375567557  0.65843127342734 -1.48764455565557
 6  20.96766393529353  2.47561897989799 -0.44455955185519
 1 -3.35518615691569  3.33948519951995  1.21414081578158
 1 -9.34815879837984  4.15111419651965 -0.57776141004100
 1 -10.14023651525152 -2.31200159945995 -0.99877270317032
 1 -2.68076059285929 -1.26048366616662  1.89079912821282
 1 -1.65385472407241  1.26767724392439  0.80712716611661
 1 -0.73987537123712  1.43443175757576  3.16153686478648
 1 -2.31214938883888  2.66417499389939  2.31518763656366
 1 -2.65559789228923  0.67848573387339  3.20825669476948
 1 -2.17748676897690 -2.14638591159116 -0.03479126592659
 1 -1.66235140414041 -0.61360283318332 -0.81938172897290
 1 -0.00279228092809 -0.31878331163116  1.04110997619762
 1 -0.09312303210321 -2.12437877167717  0.98312854495449
 1 -3.43749828022802  5.96976480438044  0.14591954965497
 1 -5.19934021462146  6.87297997389739  0.57459436553655
 1 -4.42661368956896  5.75788474947495  1.69335710801080
 1 -8.92219523362336  5.96010111931193 -0.10180655645565
 1 -12.14287384098410 -1.31656252375238 -0.97357178437844
 1 -12.99181539653965  0.36805320512051 -1.06091372777278
 1 -13.18447627072707 -0.88539065446545 -2.97336445354536
 1 -11.99161612541254  0.42699012051205 -3.13813598309831
 1 -11.15679250365037 -0.90235355235524 -3.05972257965797
 1 -9.07388657195720 -4.48674523012301 -1.82844507250725
 1 -7.74615983058306 -5.77304731733173 -1.40528017991799
 1 -9.18248552855285 -5.67465942714271  0.29652426192619
 1 -2.96072565396540 -3.80753447834784 -0.11695000180018
 1  3.28770038543854 -3.54143141694169 -0.85114083118312
 1  2.70776506530653 -2.55238115311531 -2.26103633893389
 1  4.03282060976098 -0.87799054745475  0.29312291389139
 1  4.35360841784178 -2.04627810031003 -3.41187130213021
 1  5.99785336373637 -1.41595027042704 -3.51406263016302
 1  5.52588641604160 -2.79780239453945 -2.85280946474647
 1  6.40597101900190  0.56521185858586 -2.26364898209821
 1  5.50963607300730  0.73031857965797 -0.33991825522552
 1  7.25549672857286 -1.12835103220322  0.38234995659566
 1  7.65203060146015 -1.71222001230123 -1.47637711361136
 1  8.90005213661366  0.99759035383538 -1.88678146344635
 1  8.58837733583358  1.43744893309331  0.08729443784378
 1  10.06732918001800 -1.42994043774377 -0.61887904550455
 1  8.45523776807681 -1.80636945264526  1.82821118191819
 1  10.54454052345235 -2.22720660186019  1.76940883228323
 1  9.67923113471347 -0.32796401880188  2.12037334243424
 1  10.99862350015001  1.23909666956696 -0.69230640224022
 1  10.84513426002600  1.13001187678768  0.79853373367337
 1  12.55264280648065 -0.66611905140514  0.73653733703370
 1  12.48469062306231 -0.28145636623662 -0.64639763726373
 1  13.37098196819682  1.42300184518452 -0.49584848944894
 1  13.53171521632163  1.75888013931393  0.74232002140214
 1  15.25745717151715 -0.21998951495150 -0.41832002320232
 1  15.32051195109511  0.75719611511151  2.19772254525453
 1  14.09750702420242 -1.19703737563756  2.19588708680868
 1  15.64017105020502 -0.59443302640264  1.45550202790279
 1  15.87736887178718  2.13183317671767 -0.91941191589159
 1  15.62803683628363  2.13934346984699  1.13349167236724
 1  17.76920823592359  0.39730290089009  1.07120730743074
 1  17.65702322652265  0.22294046324632 -0.96307768516852
 1  18.25454046114612  2.51201774957496 -1.16957994629463
 1  18.30855085118512  2.65012891979198  0.47024369486949
 1  20.07371993319332  0.68813165936594  0.45907925872587
 1  19.84492281028103  1.41232628222822 -2.49802192739274
 1  20.85901019101910  0.30562876107611 -1.62496663006301
 1  19.31785451245124 -0.16886460486049 -1.45173324802480
 1  20.94818159675967  2.82916249534954  0.42776352995299
 1  21.77293503380338  1.78060464316432 -0.62442515751575
 1  20.69636628952895  3.51122861006101 -1.18857365366537
 1 -0.75081070617062 -4.31914466386639  2.68019636763676
 1 -2.01495117611761 -4.98547582128213  3.98252888948895
 1 -0.80482449574957 -3.23402187928793  3.29192334553455
 8 -11.76907528182818  3.87031183038304 -0.62974478817882
 1 -13.17150766226623  2.31373261336134 -0.95483608860886

