%nproc=4
%Mem=4GB
# td=(NStates=1) iop(3/107=0140000000,3/108=0140000000) iop(3/107=0140000000,3/108=0140000000) CAM-B3LYP/6-31G(d,p) 

TD

0 1
12 -5.68300980758076  1.22253712801280  0.19138774397440
 6 -5.01504189138914 -2.07300576387639 -0.45982284908491
 6 -3.32574136323632  1.13026331113111  2.63632900620062
 6 -6.26069486518652  4.49842310651065  0.70695090389039
 6 -7.90474624172417  1.26976782748275 -2.46100377387739
 7 -4.31782603590359 -0.28865705750575  0.96173751255126
 6 -4.26557008450845 -1.61802550415042  0.62757510711071
 6 -3.23485661016102 -2.37305060786079  1.52017638133813
 6 -2.86463963496350 -1.36212910381038  2.63372992909291
 6 -3.53945137253725 -0.07264989268927  2.12764734993499
 6 -3.44336737613761 -1.80083352475248  3.99783248264827
 6 -1.95658085128513 -2.78204561386139  0.68451375687569
 6 -1.01366300980098 -3.56139371997200  1.50454404240424
 6  0.21216631713171 -3.77041088178818  0.73479167386739
 8  0.44063412771277 -3.33162047564756 -0.36606284048405
 8  0.98753559925993 -4.69955957325733  1.37403201050105
 7 -4.86461727802780  2.69121849874987  1.41351158285829
 6 -3.89498158795880  2.40247766946695  2.30181078437844
 6 -3.68416792049205  3.58177667986799  3.02398295449545
 6 -4.42729328202820  4.57391892019202  2.50439971127113
 6 -5.29289539373937  3.93034112931293  1.55675176747675
 6 -2.80175553865387  3.72618999479948  4.21187537693769
 6 -4.66394292489249  5.96152357285729  3.03352285708571
 8 -3.95359540754075  6.50557844584458  3.85760966086609
 7 -6.94186798669867  2.62000189598960 -0.67558921522152
 6 -7.00771348614861  3.89246886408641 -0.32532422112211
 6 -7.96294148054805  4.63315003980398 -1.17201131063106
 6 -8.43833328662866  3.64875180508051 -2.11272021642164
 6 -7.78266715721572  2.44488049684968 -1.66780272677268
 6 -8.31156414731473  6.05662557195720 -1.15589509830983
 6 -9.50603496679668  3.86975737393739 -3.16939157195720
 6 -8.89429088278828  4.30985913211321 -4.53881028502850
 7 -6.34715313431343 -0.09023404110411 -1.08805389738974
 6 -7.32689221882188  0.05517944934493 -2.13441765246525
 6 -7.49298680588059 -1.30185188878888 -2.79741226382638
 6 -6.70193974277428 -2.12278184998500 -2.13452961866187
 6 -5.93348176357636 -1.38612217731773 -1.16555268566857
 6 -8.56293175097510 -1.62957308330833 -3.74263115931593
 6 -6.16885055215522 -3.60405598949895 -2.02661621672167
 8 -6.43130752625263 -4.50397809620962 -2.75680194529453
 6 -5.03420198229823 -3.59598765136514 -0.96356867666767
 6 -5.37550502790279 -4.58954439553955  0.07744141594159
 8 -5.87681345294529 -4.46675568366837  1.16227259065907
 8 -5.02393209140914 -5.93221441784178 -0.32026517111711
 6 -5.36021358555856 -6.90466231953195  0.58497032683268
 6  2.26118709190919 -5.11428254845485  0.63648760316032
 6  3.41308584358436 -4.21555171607161  1.21795969576958
 6  4.05639502970297 -3.38685155525553  0.37251088608861
 6  3.85383972287229 -3.28407334863486 -1.17029653415342
 6  5.26253267906791 -2.39410445804580  0.83807760656066
 6  6.62784765606561 -2.69514243944394  0.08597006440644
 6  7.72298762236224 -1.81583093859386  0.71531722222222
 6  9.10020084138414 -2.00181501510151  0.04721693919392
 6  9.55088146984698 -3.42325296569657  0.10561710401040
 6  10.04045462456246 -0.95258549594959  0.51231374687469
 6  11.32845014741474 -0.82151175807581 -0.37300606680668
 6  12.05812350095009  0.46341096859686 -0.00259341174117
 6  13.54341679747975  0.40366523642364 -0.73249801300130
 6  14.44215251425143 -0.89520892349235 -0.41881603250325
 6  14.13879981958196  1.81040721232123 -0.40442969776978
 6  15.49588377877788  2.20651868006801 -1.12923791879188
 6  16.06122870727073  3.48988374117412 -0.63697431063106
 6  17.37389263836384  3.99243708530853 -1.34974891009101
 6  17.21110370007001  4.14630952265227 -2.85368759295930
 6  17.86783618971897  5.23271853715372 -0.64169362826283
 1 -2.65610133293329  0.96794106950695  3.51163163156316
 1 -6.27024500330033  5.49611499189919  0.80129912161216
 1 -8.49118952615262  1.33962426532653 -3.33308878767877
 1 -3.68889995479548 -3.27549286468647  1.83852191299130
 1 -1.73133025692569 -1.15318297989799  2.60668194429443
 1 -2.92459223832383 -2.82059522072207  4.31843538753875
 1 -3.75770656335634 -0.98650855525553  4.83063509330933
 1 -4.51138365006501 -2.32369145004500  3.62172612311231
 1 -2.26169148284828 -3.35148466576658 -0.24550517431743
 1 -1.41147898029803 -1.96639575587559  0.37881600320032
 1 -0.54310974447445 -2.99599089468947  2.55193941264126
 1 -1.29011373297330 -4.64794192539254  1.78305010301030
 1 -1.68616873067307  3.56949647404741  3.95110101980198
 1 -2.91275226532653  4.72894010001000  4.62579883758376
 1 -2.95434842984298  2.97060805830583  5.07714272027203
 1 -5.57261032493249  6.36250044444444  2.55673099449945
 1 -9.98378751225122  3.00731138823882 -3.29936318801880
 1 -10.14025482338234  4.58235207930793 -2.62304259495950
 1 -9.84242404220422  4.41957037103710 -5.20496569886989
 1 -8.31311082048205  5.10218996439644 -4.19102905790579
 1 -8.38022787178718  3.42143150195019 -4.79535946074607
 1 -8.34174176377638 -1.35821636453645 -4.88416941524152
 1 -8.91667265026503 -2.75501890699070 -4.07277991499150
 1 -9.55912599209921 -1.20782760616062 -3.40320722742274
 1 -4.18622597999800 -4.02592741934193 -1.56679996689669
 1  2.47614874787479 -6.04479242224222  0.99719567646765
 1  2.21082182558256 -4.93954093019302 -0.38697214681468
 1  3.62136425872587 -4.31983126492649  2.33197820542054
 1  2.73142812951295 -3.37530315141514 -1.39261180218022
 1  4.18156276957696 -2.23268682798280 -1.76311878237824
 1  4.42883505750575 -4.20216394559456 -1.73942286818682
 1  4.73326336723672 -1.40915733973397  0.96608849234923
 1  5.57114564186419 -2.58223985638564  2.00683556385639
 1  6.75246277297730 -3.60717390949095  0.10501838583858
 1  6.52647280768077 -2.31685929492949 -0.98600919641964
 1  7.34405333663366 -0.81982530763076  0.91393863936394
 1  7.94358646154615 -2.15452203530353  1.84670905620562
 1  9.04937904720472 -1.72385066026603 -1.09178251635164
 1  8.84580909960996 -4.26534530593059 -0.44228802120212
 1  10.71404074487449 -3.56401060316032 -0.25457557105711
 1  9.54842390379038 -3.61597268876888  1.18883932663266
 1  9.64832398299830  0.19706543274327  0.51223658745875
 1  10.43378347584759 -1.20195672957296  1.48681822182218
 1  12.06558169946995 -1.59314934683468 -0.14412878607861
 1  11.20662674937494 -0.96283918881888 -1.50599193279328
 1  11.47042807630763  1.16384081328133 -0.13615317051705
 1  12.19597442074207  0.49118030943094  1.25739401960196
 1  13.40918771947195  0.40351478377838 -1.72943518221822
 1  14.67064640294029 -0.65580379307931  0.73174885488549
 1  13.70037560856086 -1.82633164946495 -0.55552187368737
 1  15.18335932433243 -1.00589378757876 -1.07785467796780
 1  13.36225441964196  2.53346796589659 -0.57818960666067
 1  14.41898859915992  1.84037432663266  0.69221643554355
 1  16.30313196899690  1.34724333703370 -1.06968345904590
 1  15.30486607000700  2.27058097089709 -2.22556393609361
 1  15.14965637023702  4.15031040904090 -0.86541853995400
 1  16.25991876197620  3.28962560396040  0.50204010441044
 1  18.11177485888589  3.28751024222422 -1.12408148774877
 1  16.14190491089109  4.62699922882288 -3.18064042384238
 1  18.00284620812081  4.45541505480548 -3.42843744884488
 1  16.93606380658066  3.20328139813981 -3.27573560816082
 1  17.73218926612661  5.16715793329333  0.35206687088709
 1  19.00707823012301  5.39334348654866 -0.79193610801080
 1  17.39526107700770  6.04326382948295 -1.01542560386039
 1 -5.07703300470047 -8.03141257435744  0.26677313961396
 1 -6.59098352865287 -7.00451753835384  0.74050755825583
 1 -4.96562473107311 -6.88764033963396  1.63667812441244
 8 -7.96535412701270  6.93190969176918 -0.39571735573557
 1 -9.08134643174317  6.21393703860386 -1.73374905770577

