%nproc=4
%Mem=4GB
# td=(NStates=1) iop(3/107=0140000000,3/108=0140000000) iop(3/107=0140000000,3/108=0140000000) CAM-B3LYP/6-31G(d,p) 

TD

0 1
12 -5.55311681828183  1.24548942324232  0.20801940714071
 6 -5.03968435563556 -2.14427289058906 -0.35437230403040
 6 -3.46585537463746  1.11729201400140  2.72329770307031
 6 -6.06507530323032  4.58098136233623  0.60346055485549
 6 -7.96044181128113  1.18725957665767 -2.29648732223222
 7 -4.35651990529053 -0.30823901570157  0.98044938373837
 6 -4.22782631013101 -1.63299700130013  0.68298064766477
 6 -3.25512863736374 -2.34383768656866  1.48305266896690
 6 -2.96708987998800 -1.35052794369437  2.72517907400740
 6 -3.55109253665367 -0.16313894159416  2.13560814601460
 6 -3.46731977137714 -1.96531997339734  3.99667236663666
 6 -1.98706389958996 -2.69023643294329  0.67789309480948
 6 -1.00954259775978 -3.56793437403740  1.50721430943094
 6  0.17751285178518 -3.91974581528153  0.70746894159416
 8  0.36499656395640 -3.67078439203920 -0.47067330153015
 8  1.04033087878788 -4.77683730103010  1.34131873917392
 7 -4.83396421272127  2.71776115301530  1.44259449114911
 6 -3.99170125992599  2.38801622332233  2.47727833113311
 6 -3.72992249594959  3.72553105530553  3.22034259045905
 6 -4.45460601330133  4.67694922322232  2.63378264956496
 6 -5.22237834203420  4.01338943414341  1.55898199049905
 6 -2.76903226632663  3.75180255605561  4.33402759215922
 6 -4.53227975857586  6.03838125862586  2.90810031483148
 8 -4.03166321432143  6.61239912791279  3.95928982888289
 7 -6.83948774867487  2.57895779157916 -0.67856951325132
 6 -6.91550426522652  3.94052366956696 -0.39640132883288
 6 -7.87946313271327  4.62803952875287 -1.28426253575358
 6 -8.49097855115511  3.62741967186719 -2.04370331473147
 6 -7.72689157965797  2.36506251505150 -1.69330527702770
 6 -8.20735372627263  5.99577948734874 -1.31592110091009
 6 -9.44900926422642  3.73788418661866 -3.17306193899390
 6 -8.69499095279528  4.14921306750675 -4.47028343234323
 7 -6.44254267326733 -0.15992100980098 -1.04301939393939
 6 -7.36311584118412 -0.01828789738974 -2.05946015671567
 6 -7.50360786798680 -1.24992669626963 -2.77081960456046
 6 -6.64343389218922 -2.10028960076008 -2.08969513521352
 6 -6.06214462986299 -1.44112767786779 -1.11225735613561
 6 -8.50527598539854 -1.45305543154315 -3.83484038023802
 6 -6.13701736883688 -3.49049463336334 -1.97898145324532
 8 -6.51422581808181 -4.56825452385239 -2.55412167726773
 6 -5.00976953905390 -3.48481653425342 -0.94831715151515
 6 -5.30398787618762 -4.68383382448245  0.07205087688769
 8 -5.61804757635764 -4.60105911401140  1.28189455285529
 8 -5.09031873007301 -5.87783898029803 -0.58148129272927
 6 -5.39330689488949 -7.02979483278328  0.26168799859986
 6  2.32655362856286 -5.21281240144014  0.82678663306331
 6  3.43698823382338 -4.19627978887889  1.01906980678068
 6  4.02254164436444 -3.29005187528753  0.15594922992299
 6  3.48770310921092 -2.98877381868187 -1.23399290379038
 6  5.19138556435644 -2.39112416001600  0.70433423222322
 6  6.50718558985899 -2.53489641484148  0.02096356375638
 6  7.55303062666267 -1.62558191369137  0.53165885638564
 6  9.00953177447745 -1.89478431203120 -0.03728151065107
 6  9.48973535523552 -3.40796143654365  0.34802134443444
 6  9.88950953005300 -0.80808104550455  0.37777029252925
 6  11.31855915831583 -0.74386399329933 -0.23381214741474
 6  12.18403609220922  0.39295392289229  0.19750659825983
 6  13.45345780158016  0.49975484538454 -0.54093885708571
 6  14.37550584958496 -0.74463386598660 -0.56388053895390
 6  14.26700263986399  1.80736690829083 -0.09009826462646
 6  15.42495668606861  2.23523155135514 -1.03456845184518
 6  16.12154473887389  3.51272602540254 -0.65610622382238
 6  17.34811006010601  3.88452629422942 -1.41022495769577
 6  17.16831942164216  3.89743463516352 -2.93385560976098
 6  17.96878628472847  5.20801606690669 -0.87588704760476
 1 -2.84483020582058  0.98909318471847  3.73311377977798
 1 -6.59121710051005  5.67907328772877  0.79247823952395
 1 -8.75565597279728  1.18849915281528 -3.18490396919692
 1 -3.72528359315932 -3.43001831723172  2.00477853865387
 1 -1.85197232113211 -1.11296895849585  2.59933120922092
 1 -3.06276605570557 -2.70478363956396  4.36765030903090
 1 -3.22848364106411 -1.25882578697870  4.89422145194519
 1 -4.48858136983698 -2.12449153005301  3.93713766426643
 1 -2.33048836253625 -3.43104262156216 -0.13463408720872
 1 -1.40285811821182 -1.81406052235224  0.36588471007101
 1 -0.50153558705871 -3.26548784438444  2.52206642534253
 1 -1.52574729632963 -4.54116124732473  1.82712451045105
 1 -1.66567668146815  3.63106263066307  3.92457836753675
 1 -2.93667465756576  4.75590279627963  4.82819907760776
 1 -3.01620461546155  2.88316931443144  4.98843384938494
 1 -5.09334239813981  6.55062925732573  2.01772709410941
 1 -10.11852098559856  2.75139579667967 -3.29156240794079
 1 -10.19973077097710  4.59139298339834 -2.89739002970297
 1 -9.36411621142114  4.11887030103010 -5.33982918521852
 1 -8.13728323772377  5.13115286068607 -4.73180313531353
 1 -7.76026587558756  3.45187454625463 -4.62190211501150
 1 -8.14439202880288 -0.71074161706171 -4.74281527982798
 1 -8.31406238923892 -2.52140554565457 -4.51265390239024
 1 -9.36937701720172 -1.15131195459546 -3.39995690239024
 1 -4.22614997239724 -3.80377520412041 -1.41897518441844
 1  2.47205833883388 -6.21232917591759  1.28777473437344
 1  2.31981272467247 -5.50228720482048 -0.36893034263426
 1  3.84562668496850 -4.00646992879288  2.15003001060106
 1  2.41355634233423 -3.16328194929493 -1.48657119811981
 1  3.50205481878188 -1.86772033133313 -1.36481895239524
 1  4.13568574257426 -3.36829055825583 -2.14136306220622
 1  4.66557659855986 -1.27633405740574  0.68150003350335
 1  5.37617614491449 -2.46177781018102  1.76099097939794
 1  6.81707923462346 -3.51368456055606  0.12754063806381
 1  6.26491665206521 -2.32100970997100 -1.01117171267127
 1  7.44624355565557 -0.66076940204020  0.00856810231023
 1  7.52362446534653 -1.69052563566357  1.76702108740874
 1  8.79624373367337 -1.97707598279828 -1.15640897899790
 1  8.72671719041904 -4.17180595199520  0.21118732633263
 1  10.51491083188319 -3.58636283838384  0.04365425192519
 1  9.58377743914391 -3.43499459095910  1.36775721842184
 1  9.45135428602860  0.29098482468247  0.54442980678068
 1  10.10059015651565 -0.99674620852085  1.54726426642664
 1  11.87993313461346 -1.72221225312531 -0.02496686988699
 1  11.15771185788579 -0.66152905780578 -1.41745307890789
 1  11.47528856235624  1.25603003220322  0.21550199499950
 1  12.53168799209921  0.34930612201220  1.27439571977198
 1  13.11416821752175  0.71930636293629 -1.58538077677768
 1  14.54679401770177 -1.12598081078108  0.49579525952595
 1  13.82088765976598 -1.65713472977298 -0.87115343684368
 1  15.26107709610961 -0.55960915911591 -1.27020391289129
 1  13.49023721792179  2.68023264236424 -0.07378916661666
 1  14.56940364066407  1.37923821302130  0.99148636253625
 1  16.14016567236724  1.34698331103110 -1.13845033573357
 1  15.15153073647365  2.33318723152315 -2.17596897659766
 1  15.24813621822182  4.27406278427843 -0.88503050115011
 1  16.27189996009601  3.73384002540254  0.57043694409441
 1  18.12402608400840  3.00886237743774 -1.29741882148215
 1  16.25051577197720  4.61821835073507 -3.19789214901490
 1  18.17210313381338  4.29133864716472 -3.42305691079108
 1  16.80130033023303  2.85887695769577 -3.24162219681968
 1  18.15475152235223  5.29637085458546  0.20067173137314
 1  18.93044056635664  5.27011116331633 -1.23784069846985
 1  17.40946249714971  5.94774427752775 -1.11436549784978
 1 -5.02238754015402 -7.83404283738374 -0.32481601930193
 1 -6.62027645794579 -7.05969305590559  0.34167767526753
 1 -4.96296446504650 -7.00936251185119  1.25074953155316
 8 -7.75420301190119  6.78052455325533 -0.53965174917492
 1 -9.13030132723272  6.23276892179218 -2.19006468926893

