%nproc=4
%Mem=2GB
# td=(NStates=1) iop(3/107=0140000000,3/108=0140000000) iop(3/107=0140000000,3/108=0140000000) CAM-B3LYP/6-31G(d,p) 

TD

0 1
12 -6.85420799289929  0.62735187928793  0.05196281578158
 6 -4.56562366886689 -2.01590001180118  0.36577685468547
 6 -4.23663547894789  2.76655828892889  0.80633351495150
 6 -9.14893759845985  3.13397742184218 -0.21972147384738
 6 -9.20383848144815 -1.74266729632963 -0.62829288798880
 7 -4.67817288918892  0.39759915761576  0.49514854695470
 6 -3.95667293289329 -0.80266997379738  0.59528008340834
 6 -2.35637905650565 -0.44300605980598  0.89523158545855
 6 -2.48722868866887  1.07107725652565  1.25237740024002
 6 -3.91994825772577  1.44478456365637  0.87849262396240
 6 -2.08703498919892  1.34342613851385  2.74872943574357
 6 -1.50713946234623 -0.95937850125013 -0.39832850655066
 6 -0.21431955025503 -1.34591629822982  0.36316539003900
 6  0.82071315051505 -1.38511574847485 -0.83891206500650
 8  0.64836490459046 -0.81500411291129 -1.89456044624462
 8  1.93250353695370 -2.08851915051505 -0.38288321082108
 7 -6.87145888808881  2.59616998699870  0.15826957485749
 6 -5.60961152205221  3.31759040224022  0.41886818301830
 6 -5.93216743194319  4.78564824962496  0.47903277187719
 6 -7.18738945234523  4.90969706020602  0.14145072837284
 6 -7.88038974287429  3.55204401280128  0.19530436183618
 6 -5.00228514881488  5.78366579707971  0.95487315531553
 6 -8.10270183148315  6.16687360746075  0.06091561526153
 8 -7.51665558175818  7.06184780138014  0.45705356215622
 7 -8.79759331283128  0.67703856305631 -0.33532618171817
 6 -9.51389506190619  1.84046878217822 -0.35542659495950
 6 -11.12032866316632  1.55751562266227 -0.63178896009601
 6 -11.16156051355135  0.19373027742774 -0.87598845434543
 6 -9.73500516381638 -0.35989415261526 -0.69875195189519
 6 -12.09198597389739  2.56056224932493 -0.73142779357936
 6 -12.25701882238224 -0.59975353765377 -1.17163529722972
 6 -12.29641650375038 -0.94022618781878 -2.67290008470847
 7 -6.88998548144814 -1.41377393869387 -0.08537118161816
 6 -7.93983664526453 -2.31800179687969 -0.49394259225923
 6 -7.56239382448245 -3.71189851225123 -0.37947895799580
 6 -6.19833545474547 -3.56350551145114 -0.06379464006401
 6 -5.93944023272327 -2.25347416191619  0.15890207450745
 6 -8.36664518801880 -4.90708808660866 -0.58376119201920
 6 -5.06822302680268 -4.41491728982898  0.18775680138014
 8 -4.84656640534053 -5.60573111141114 -0.00222971637164
 6 -3.89862358775878 -3.44410496969697  0.42692733993399
 6 -3.30442395329533 -3.74897107260726  1.71199091209121
 8 -3.96293153325333 -3.70263699849985  2.85618428822882
 8 -1.91674334923492 -3.48337464276428  1.79559949914991
 6 -1.20701922402240 -3.89650474057406  2.95673009820982
 6  3.16426831963196 -2.09908508540854 -1.26199744384438
 6  4.04582835023502 -1.12007900900090 -0.85484101640164
 6  5.10992174757476 -0.78668553995400 -1.64434063566357
 6  5.26073005680568 -1.38894202890289 -3.11172815501550
 6  6.28192201680168  0.13674602170217 -1.34083064156416
 6  7.54492318631863 -0.76015179727973 -0.72963970127013
 6  8.63967652795279  0.28839447404740 -0.52170065056506
 6  9.86310940034003 -0.45951287158716  0.07998969326933
 6  9.86560407670767 -1.26983579827983  1.40405477427743
 6  11.16333866386639  0.61426628082808  0.07148198659866
 6  12.50946621712171 -0.12751144394439  0.27207551875187
 6  13.52389393199320  1.06000327502750  0.32345524392439
 6  14.75310164536454  0.36083936203620  0.39551421352135
 6  14.95103009110911 -0.28608088858886  1.36869679367937
 6  15.84632426082608  1.29391429342934  0.12834603990399
 6  17.41624110221022  0.59980520492049  0.22611573767377
 6  18.39477902530253  1.64899209040904 -0.19014916171617
 6  19.87436963806381  1.08169666446645 -0.26303638733873
 6  19.77732753405341  0.10558598889889 -1.41196698789879
 6  21.02052922182218  2.16112753075308 -0.39323441934193
 1 -3.40259089738974  3.67814906590659  0.79562896459646
 1 -9.81395537803780  4.09060814591459 -0.56615024892489
 1 -9.85706819841984 -2.65657605690569 -0.75606843274327
 1 -2.33221573837384 -1.11483910171017  1.77495754405441
 1 -1.63812315091509  1.74963543974397  0.43428988238824
 1 -1.07875925962596  1.08929724412441  3.05169588068807
 1 -2.21364953885388  2.45101367776778  3.13233935173517
 1 -2.70138247074707  0.79131701700170  3.37061293039304
 1 -1.83542256255626 -1.76129740274027 -0.99657744454445
 1 -1.43727889688969 -0.14293576647665 -1.16562635343534
 1 -0.01720372207221 -0.39997143044304  1.18397426262626
 1 -0.44168788858886 -2.47410374417442  1.09918015011501
 1 -4.25077960836084  6.10043787168717  0.30469542724272
 1 -5.70231051165117  6.59938261416142  1.05552245834583
 1 -4.55422645084508  5.65464442544254  1.92119989228923
 1 -8.94345735983599  6.26093120232023  0.11138476267627
 1 -12.52523207680768 -1.52904377187719 -0.30114454165417
 1 -13.40228644364436  0.03300970077008 -1.13817145354536
 1 -13.04603242634264 -1.81164327972797 -3.08224534163416
 1 -12.60053701750175 -0.15273785228523 -3.24937710721072
 1 -11.38113493789379 -1.43150646764676 -2.80714732213221
 1 -8.91728091139114 -4.55573212881288 -1.21642387038704
 1 -7.33065828042804 -5.55155516811681 -0.88979863176318
 1 -8.91659893989399 -5.10769273047305  0.20823543304330
 1 -3.36210579197920 -3.57086081098110  0.00070176337634
 1  3.47065868126813 -3.20280755455546 -0.99825554265427
 1  2.90461475027503 -2.30729664466447 -2.29725996129613
 1  3.86940426812681 -0.93028577697770 -0.00132653105310
 1  4.17763082008201 -0.60572404490449 -3.43766388138814
 1  6.15609918831883 -1.11223989938994 -3.65799702360236
 1  5.05426925432543 -2.60419303360336 -3.19328351215121
 1  6.45538596049605  0.73616895429543 -2.31163378057806
 1  5.87312242164216  1.00835638343834 -0.52431669506951
 1  7.20082126102610 -1.13080127722772  0.39588130973097
 1  8.07851324972497 -1.85076386668667 -1.59620909680968
 1  8.67011914331433  1.15168576337634 -1.48094087938794
 1  8.35522402050205  1.10232542074207  0.59758546694670
 1  10.06124857195720 -1.40812825652565 -0.76567372497250
 1  9.26297854215422 -2.30628944464447  1.08021638243824
 1  10.93696976637664 -1.48170205140514  1.48345023642364
 1  9.04577778937894 -0.63039426182618  2.27702900800080
 1  11.08387202500250  1.18849160906091 -0.82573974557456
 1  10.54114386098610  1.33257213281328  1.17857173747375
 1  12.56190373257326 -0.95656809630963  1.46401008430843
 1  12.78003015701570 -0.91785000560056 -0.62529552705271
 1  13.49600447044705  1.95201474647465 -0.59326823142314
 1  13.20292233703370  1.42905715701570  1.28955474487449
 1  14.62690411621162 -0.11747926392639 -0.37386557775778
 1  14.55038493839384  0.25806620212021  2.36172894589459
 1  14.14103137663766 -1.04163183508351  1.24932243034303
 1  16.03875090819082 -0.60844442754275  1.90611708940894
 1  15.84789592449245  1.87369736313631 -1.10153012771277
 1  15.45494952755276  1.92799233473347  0.57622594579458
 1  17.50104141924192  0.16484965556556  1.24213440014001
 1  17.50388791299130 -0.34771660246025 -0.28727010441044
 1  18.50221522862286  2.25761230903090 -1.12327531583158
 1  18.45628562466247  2.50647455435544  0.58811548204820
 1  20.10293285448545  0.63545639183919  0.74941829262926
 1  19.50642896089609  0.80349539913991 -2.22755488068807
 1  20.99697398739874 -0.41917371917192 -1.86140027342734
 1  18.96020874787479 -0.62197991639164 -1.31402947764776
 1  20.62632941154115  2.61397097619762  0.39812056565657
 1  22.12863060336034  1.97523410611061 -0.15222793779378
 1  20.73431008390839  2.56293378057806 -1.34996979327933
 1 -0.24545017011701 -4.03499624902490  2.30984933293329
 1 -1.41528120912091 -4.72079935363536  3.03135377197720
 1 -1.40491450475047 -3.30960943804380  3.69519367256726
 8 -11.89832820712071  3.70570536973697 -0.70012182588259
 1 -13.07419793129313  2.18189943004300 -0.92433303830383

