%nproc=4
%Mem=2GB
# td=(NStates=1) iop(3/107=0140000000,3/108=0140000000) iop(3/107=0140000000,3/108=0140000000) CAM-B3LYP/6-31G(d,p) 

TD

0 1
12 -6.83300587268727  0.55132427652765  0.13053067256726
 6 -4.53876098259826 -1.99568799059906  0.23995427242724
 6 -4.31761357675768  2.80810244334433  1.06867974957496
 6 -9.00375308000800  3.12894691879188 -0.30235973767377
 6 -9.36979507710771 -1.72896592619262 -0.97812787148715
 7 -4.74402947484748  0.49716911461146  0.62432146424642
 6 -4.01565883148315 -0.73781348814881  0.81066162156216
 6 -2.53752717131713 -0.54757651685168  0.98880094239424
 6 -2.56714668046805  1.04882503130313  1.45403756625663
 6 -3.93329959285929  1.58342842804280  0.95155993069307
 6 -2.28377466316632  1.44682647854785  2.75283984678468
 6 -1.50208895729573 -0.79144170757076  0.00535186148615
 6 -0.28960707900790 -1.07518922552255  0.56395546904690
 6  0.72616369556956 -1.30189742664266 -0.53871204500450
 8  0.92543261136114 -0.92259487198720 -1.64029501970197
 8  1.94515480208021 -1.91500179877988  0.09663474097410
 7 -6.58832057425743  2.54401477147715  0.28408215611561
 6 -5.64695525642564  3.23469211241124  0.82032832903290
 6 -5.96010022522252  4.80759044384438  0.86508137673767
 6 -7.31683239663966  4.83031912241224  0.55623220652065
 6 -7.75124682858286  3.45118392679268  0.11457628902890
 6 -5.23279820012001  5.93305073557356  1.24359202720272
 6 -8.26295785708571  5.97626454655466  0.34671419511951
 8 -7.82340625682568  7.07120873747375  0.75553341014101
 7 -8.93436699019902  0.64364522372237 -0.50071272037204
 6 -9.57286095849585  1.87532226752675 -0.41189224152415
 6 -11.03020965126513  1.50008988008801 -0.81663744494449
 6 -11.25605996349635  0.08021892629263 -0.92829368486849
 6 -9.94692635593559 -0.43124128732873 -0.81018309500950
 6 -11.91357813311331  2.60886707980798 -1.04838948974898
 6 -12.33202632313231 -0.57375093739374 -1.39563769746975
 6 -12.28758562066207 -0.88923108830883 -2.78011080578058
 7 -7.00296677957796 -1.35353791509151 -0.26740938543854
 6 -7.97999066066607 -2.14724472117212 -0.59970316831683
 6 -7.62002958805881 -3.51927925032503 -0.65484649474948
 6 -6.27067268846885 -3.54994415531553 -0.28414667526753
 6 -5.92736902560256 -2.16895571007101 -0.10142395809581
 6 -8.42045056855686 -4.71404878267827 -1.05390820672067
 6 -5.04525072957296 -4.40895669376938 -0.14187616191619
 8 -4.86908865756576 -5.60416095439544 -0.41409090249025
 6 -3.90187391279128 -3.38412897209721  0.37168181538154
 6 -3.47027053795380 -3.71494767026703  1.83622333533353
 8 -4.06661190129013 -3.82098883368337  2.76777544734473
 8 -2.10469214411441 -3.42094840014001  1.81318125732573
 6 -1.31095961806181 -3.95880097019702  2.87759218441844
 6  3.21214310711071 -2.19292446934693 -0.87047829192919
 6  4.18113188058806 -1.13920092119212 -0.71921745404540
 6  5.18765952135213 -1.24140101150115 -1.57300350195019
 6  5.27838182198220 -2.01046418111811 -2.72086906910691
 6  6.38712253685369 -0.14804245714571 -1.33267982648265
 6  7.56529522352235 -1.00446622872287 -0.71883862116212
 6  8.73959651995199 -0.05631999739974 -0.35814429492949
 6  10.07117020642064 -0.72077899819982  0.29104079837984
 6  9.76906442274227 -1.35777459215922  1.69142351115112
 6  11.10854318431843  0.49155400960096  0.44861970037004
 6  12.41803707420742  0.05669697689769  0.47041535273527
 6  13.65869741234123  1.00442771747175  0.34952785118512
 6  15.11649798499850  0.37400067816782  0.55477013911391
 6  15.45339032713271 -0.12731501200120  1.95838576257626
 6  16.11611123952395  1.41334623662366  0.20152335763576
 6  17.48014749284928  0.87908313271327 -0.22956983088309
 6  18.63318286568657  1.81623881508151 -0.52856300310031
 6  19.82124432553255  1.17758625342534 -1.00247033073307
 6  19.65894569586959  0.36870230053005 -2.30313610481048
 6  20.93380054895490  2.40589200720072 -1.18110320622062
 1 -3.75394603290329  3.69027027802780  1.58519792149215
 1 -9.45368935143514  4.00381946704670 -0.75331896579658
 1 -10.08232072367237 -2.25692609190919 -1.36133895979598
 1 -2.38243075987599 -1.29911752955295  2.13839388768877
 1 -1.88152749134913  1.45719619581958  0.93116957035703
 1 -1.30774215791579  0.99005732013201  3.09486019711971
 1 -2.13221139503950  2.29924850125012  3.24542065986599
 1 -2.72772510501050  0.91020890619062  3.66595246434643
 1 -2.05034405470547 -1.59074034703470 -0.45847363416342
 1 -1.45495066406641 -0.12025349824983 -0.92084187498750
 1  0.46037403570357 -0.49212064536454  1.17791365656566
 1 -0.36028974877488 -2.02091842564256  1.02831306340634
 1 -4.24989952035204  6.19234706260626  0.62354731243124
 1 -6.04080436103610  6.82900557645765  1.04092099819982
 1 -4.97824885308531  5.48335729672967  2.22007978027803
 1 -9.33150616471647  5.92197730693069 -0.17565394119412
 1 -12.28593814741474 -1.28765963346335 -0.90616504370437
 1 -13.16671288628863 -0.07416101630163 -1.19353699009901
 1 -13.33438126122612 -1.37963007840784 -3.25758287538754
 1 -12.58119508330833 -0.05466804530453 -3.47595976547655
 1 -11.24814163856386 -1.44523784078408 -3.01082769016902
 1 -8.92349153245325 -4.65480203580358 -2.00953318131813
 1 -7.74959017361736 -5.47010702330233 -1.06968662056206
 1 -8.94119139913992 -4.85911787298730  0.02148675817582
 1 -3.13404298569857 -3.69628335323532 -0.58043635043504
 1  3.63753536893689 -3.28288556235624 -0.33659937703770
 1  2.87706199499950 -2.63017893289329 -1.83096333163316
 1  4.05107243494349 -0.51934468286829  0.01746534813481
 1  4.60293335033503 -2.25486895939594 -3.67313742874287
 1  6.16945052345234 -2.06826550195020 -3.49108033193319
 1  5.50563439083908 -2.99420203450345 -2.26288047184719
 1  6.37384780668067  0.54280961836184 -2.22848546574657
 1  6.34098920832083  0.56099164696470 -0.55401966536654
 1  7.06950812971297 -1.43077127422742  0.13518524012401
 1  7.81252665106511 -1.68269706000600 -1.43127260316032
 1  8.79948207960796  0.44360495529553 -1.35726851215122
 1  8.24785328342834  0.92058724692469  0.24528023642364
 1  10.51738418551855 -1.31348879257926 -0.33711086868687
 1  9.12911515581558 -2.28312712841284  2.05821418221822
 1  10.69822589198920 -1.85176905810581  2.12793468486849
 1  9.53773698529853 -0.74040526292629  2.48714001910191
 1  11.05496913471347  1.13053581348135 -0.27004417601760
 1  10.49281902850285  0.99426830243024  1.37955183548355
 1  12.99323686588659 -0.48419085858586  1.40017370067007
 1  12.62568472247225 -0.47418563916392 -0.49766276377638
 1  13.59822469246925  1.68080762576258 -0.44575347994799
 1  13.48963100790079  1.52857710901090  1.06856264566457
 1  15.27074850065006 -0.69520703670367 -0.04950314151415
 1  15.48304820472047  0.54158455395539  2.83787656065607
 1  14.73786105960596 -0.87981565346535  2.04958245634563
 1  16.61981901500150 -0.49503308640864  2.02761923962396
 1  15.57986912181218  2.11245123852385 -0.15727570227023
 1  16.33685771837184  1.92141167666767  1.12265058825883
 1  17.85039635473547  0.24830800140014  0.73307349404940
 1  17.08253577777777  0.05982415161516 -0.77431880928093
 1  18.02986799389939  2.16170271807181 -1.60313330163016
 1  18.26508650475048  2.62835674257426  0.10447711821182
 1  20.53734629582958  0.70732357855786 -0.01073772297230
 1  19.89036735473547  1.11529657925793 -3.06416854205421
 1  20.69523381338134 -0.27800960276028 -2.87078121152115
 1  18.87254998199820 -0.50756847524752 -2.26733480818082
 1  20.89311609020902  3.00394997409741  0.01630238383838
 1  21.77624536483648  1.85742232493249 -2.07596031103110
 1  20.36065271817182  3.18390587778778 -1.75399019531953
 1 -0.41014663976398 -3.85563831323132  2.19781812981298
 1 -1.67554723572357 -5.04891216491649  3.04472510911091
 1 -1.45852986628663 -3.30703918101810  3.46466061926193
 8 -11.74728310261026  3.83625842504250 -1.08053986768677
 1 -13.11580209170917  2.14624586468647 -1.06385699069907

