%nproc=4
%Mem=2GB
# td=(NStates=1) iop(3/107=0140000000,3/108=0140000000) iop(3/107=0140000000,3/108=0140000000) CAM-B3LYP/6-31G(d,p) 

TD

0 1
12 -6.68759133123312  0.56048519261926 -0.00485286578658
 6 -4.59605671217122 -2.09638806060606  0.33049332633263
 6 -4.25443725912591  2.56454808790879  1.07477035863586
 6 -8.91112381708171  3.30060408450845 -0.30883038473847
 6 -9.45264336193619 -1.61847487708771 -0.70052011071107
 7 -4.58339341124112  0.32616201390139  0.56898593069307
 6 -3.93574083968397 -0.88510821762176  0.55255581098110
 6 -2.53088650725073 -0.77353911311131  1.17804986728673
 6 -2.48082804860486  0.75036518531853  1.39973213571357
 6 -3.80701696459646  1.34105419061906  0.92562733743374
 6 -2.04804108980898  1.12428422432243  2.84400896369637
 6 -1.62232098049805 -1.08544110751075 -0.08830750445045
 6 -0.08419653795380 -1.32883459005901  0.38272734623462
 6  0.85450652985299 -1.44047128402840 -0.76427460126013
 8  0.81755182328233 -0.98377098959896 -1.82186317651765
 8  1.96895718231823 -2.24782508110811 -0.20376529902990
 7 -6.36414815701570  2.53693406340634  0.18063181108111
 6 -5.43167372827283  3.16791543474347  0.69774607080708
 6 -5.64766898209821  4.61382106690669  0.83458832743274
 6 -6.91770248364837  4.87428351885189  0.45695227852785
 6 -7.49963166706671  3.54505331373137  0.13497832923292
 6 -4.63881880218022  5.68504593509351  1.07488515651565
 6 -7.71621318261826  6.18437535763576  0.21040056375638
 8 -7.20898481468147  7.27937955455546  0.36261411821182
 7 -8.61736529002900  0.76299715891589 -0.50965361446145
 6 -9.29196286868687  1.97516225152515 -0.56854790709071
 6 -10.70921755205521  1.73050292139214 -0.87894367556756
 6 -10.86318067556756  0.32818372277228 -1.09593044854485
 6 -9.61468313161316 -0.31222938613861 -0.67318939563956
 6 -11.69991676697670  2.78785497859786 -1.05610026082608
 6 -12.16814993549355 -0.31094465676568 -1.50200833453345
 6 -11.92449931203120 -1.11445361056106 -2.88626142084208
 7 -7.12422890579058 -1.39052161346135 -0.27502014651465
 6 -8.11962462406241 -2.20287028372837 -0.49316251425143
 6 -7.79199678477848 -3.64479180158016 -0.31061207130713
 6 -6.30253587478748 -3.64523368426843 -0.13150141074107
 6 -5.97556384508451 -2.09803861836184  0.03348953325333
 6 -8.61473999749975 -4.82928030583058 -0.48519133503350
 6 -5.26616282078208 -4.46254205230523  0.27466549224923
 8 -5.08788053675368 -5.66653719201920  0.11006151275127
 6 -4.05634936033603 -3.49356991619162  0.52928757595760
 6 -3.43587709860986 -3.79582575807581  1.83031274427443
 8 -3.91185642574257 -4.07969470427043  2.93625229502950
 8 -2.01303297819782 -3.73690999629963  1.62720265946595
 6 -1.16082460456046 -4.06490158025803  2.92597702290229
 6  3.10444233703370 -2.44524970187019 -1.22872411651165
 6  4.13737750515052 -1.38234523562356 -0.98321385368537
 6  5.03882463786379 -1.15402227362736 -1.76141234283428
 6  5.39893387718772 -1.74508764346435 -3.14823180538054
 6  6.05574939953995 -0.02736038893889 -1.18894545304530
 6  7.25084377837784 -0.56278206030603 -0.72163890119012
 6  8.33294585488549  0.39125476007601 -0.41722020252025
 6  9.57185027442744 -0.22967988828883  0.00426212051205
 6  9.45198271457146 -0.77185600030003  1.36925129392939
 6  10.79052138213821  0.72348720292029  0.14886972537254
 6  12.09364463496350 -0.03913260606061  0.30584889608961
 6  13.30821236383638  0.98191546624662  0.37714061246125
 6  14.63790012521252  0.41247452555256  0.53257791989199
 6  14.69619460756076  0.16358407790779  2.03918384238424
 6  15.59846947534754  1.46782168416842  0.19541274657466
 6  17.13797327542754  0.86421164556456  0.19844297039704
 6  18.11034058145815  1.92542973417342 -0.42098224502450
 6  19.66300850195019  1.18846734153415 -0.75361544524452
 6  19.71581138243824  0.33807923822382 -1.97828361956196
 6  20.62241941084109  2.35266668466847 -0.67788288418842
 1 -3.51004164246425  3.34430568156816  1.27521692339234
 1 -9.39304328682868  4.23453253835384 -0.67270090399040
 1 -10.13118561016102 -2.44942534183418 -0.75187801370137
 1 -2.36900941774177 -1.29535715351535  1.88030807910791
 1 -1.68904824342434  1.41639211541154  0.71032748614861
 1 -0.95471685538554  0.65598391279128  3.22472318341834
 1 -1.89090726462646  2.23256183258326  2.97169328712871
 1 -2.61761409390939  1.05005289058906  3.71963783288329
 1 -1.80397941824182 -1.86224749774978 -0.62774056085608
 1 -1.69330449944994 -0.14208568146815 -0.75887567836784
 1  0.23822182048205 -0.45650708400840  0.98191405660566
 1  0.02689897009701 -2.10003633743374  1.11986221832183
 1 -3.85497002740274  5.48022585048505  0.19667462516252
 1 -4.62670295089509  6.64312698859886  1.27735464156416
 1 -3.97003803200320  5.77493645464546  2.39414718701870
 1 -8.73818683278328  5.80551566076608 -0.16157253305330
 1 -12.49861941554155 -1.08603947144714 -0.57189161636164
 1 -13.06251246624662  0.52489888968897 -1.52040967736774
 1 -12.62251007410741 -1.79644175957596 -3.20126724382438
 1 -12.17013397719772 -0.46065864436444 -3.62324449394939
 1 -10.82209903430343 -1.60406372337234 -2.96279288668867
 1 -9.57434661796180 -4.57379393499350 -1.39067129512951
 1 -7.66038125272527 -5.64396440904090 -0.69420907280728
 1 -9.46308358835884 -5.51190315151515  0.61411602110211
 1 -3.29131871327133 -3.77980170507051 -0.27863617041704
 1  3.16458807420742 -3.73617089088909 -0.98368408550855
 1  2.66508079687969 -2.41644755975597 -2.20062029732973
 1  3.68400572827283 -1.13984673307331 -0.13449984838484
 1  4.56908996599660 -1.40300377287729 -4.02739285428543
 1  6.44805838423842 -1.78719739513951 -3.51681290519052
 1  4.86075990339034 -2.94648726302630 -3.37380156395640
 1  6.20372079397940  0.78355369276928 -1.98688130533053
 1  5.32744785418542  0.76114166196620 -0.60204446784678
 1  7.05603678257826 -1.11472967006701  0.47962968456846
 1  7.48533393179318 -1.35867465776578 -1.42551202710271
 1  8.72563469486949  1.27235783058306 -1.28285107040704
 1  8.08683718181818  1.35291047924793  0.28057376577658
 1  9.91903435053505 -1.18641608530853 -0.78565572317232
 1  8.88226047034703 -1.82912172787279  1.20010837163716
 1  10.11271734113411 -1.21817569876988  1.87511940334033
 1  9.16110932253225  0.27621639923992  1.87415872097210
 1  10.96860049784978  1.53081584148415 -0.74658182978298
 1  10.63657340394039  1.25217409300930  1.14115799609961
 1  12.19603714591459 -0.46389882938294  1.12662634593459
 1  12.42256441044104 -0.60389861046105 -0.22315531303130
 1  13.32263713371337  1.35553509850985 -0.40691959655966
 1  13.32488453325333  1.73095734703470  1.37070285968597
 1  14.78875030083008 -0.45457297329733 -0.11593978517852
 1  14.82667256715672  1.12530292579258  2.53518629162916
 1  14.20730800430043 -0.49474714661466  2.17040453855386
 1  15.50541757485749 -0.37870145324533  2.26025250295030
 1  15.38278941384138  1.75648564196420 -0.97281725642564
 1  15.30040407300730  2.39704924042404  0.96743506670667
 1  17.32264357945795  0.44199737033703  1.48687887458746
 1  17.05669319351935 -0.24661649244924 -0.42994437183718
 1  17.95795080218022  2.57841438923892 -1.50735372367237
 1  18.49135913201320  3.07713162006201  0.46367303780378
 1  19.74567712891289  0.35429827602760  0.08578192899290
 1  19.18616693469347  1.24020907050705 -3.04367649284928
 1  21.07659194919492 -0.11168297009701 -2.10391452485249
 1  19.05779850685068 -0.68271598999900 -1.82803087778778
 1  20.91472825142514  3.12289186828683  0.40022077567757
 1  21.66832457275728  1.94014059675968 -1.19475219021902
 1  20.46404305720572  3.26409389658966 -1.23623842014201
 1 -0.02042766786679 -4.23905665506551  2.89701804980498
 1 -1.66064574557456 -4.90070734443444  3.27429806640664
 1 -1.27158117141714 -3.15541401850185  4.01156530973097
 8 -11.44229260356036  3.93900870007001 -0.76915872957296
 1 -12.68027853935394  2.41900314041404 -1.37247785278528

