%nproc=4
%Mem=4GB
# td=(NStates=1) iop(3/107=0140000000,3/108=0140000000) iop(3/107=0140000000,3/108=0140000000) CAM-B3LYP/6-31G(d,p) 

TD

0 1
12 -5.58289979657966  1.16792166646665  0.17983658885889
 6 -5.09702008920892 -2.22696115941594 -0.38853572037204
 6 -3.32886167526753  1.10785106990699  2.75747112041204
 6 -6.03308210391039  4.53501676587659  0.60035024382438
 6 -7.94637040414041  1.17054790549055 -2.41671934543454
 7 -4.40716496979698 -0.38167635943594  1.07073841264126
 6 -4.40608413591359 -1.73263696529653  0.70294264386439
 6 -3.30589371387139 -2.47830113291329  1.50289465316532
 6 -3.06826999799980 -1.50814370527053  2.76968352445245
 6 -3.63528095549555 -0.14716734443444  2.12796738193819
 6 -3.81155419481948 -1.90347378877888  4.00965366476648
 6 -2.06981217441744 -2.88629603890389  0.66536184168417
 6 -1.01704334783478 -3.51994957555756  1.52655624362436
 6  0.29017411791179 -3.77254109480948  0.66929512421242
 8  0.37036710101010 -3.40431774537454 -0.41908814301430
 8  1.11454830053005 -4.60737035433543  1.34864947224722
 7 -4.77539835613561  2.49318869576958  1.50422065376538
 6 -3.76104819461946  2.36299372107211  2.43472407570757
 6 -3.54202370607061  3.55131363356336  3.05918647484748
 6 -4.27645819851985  4.51646317461746  2.50493976527653
 6 -5.08203430763076  3.83790188538854  1.39206529882988
 6 -2.73700906400640  3.73235061086109  4.30429461886189
 6 -4.54935146574657  5.89590701120112  2.82911241604160
 8 -3.83193324132413  6.47097498549855  3.69638353825383
 7 -6.77648144804480  2.63370326612661 -0.75249690599060
 6 -6.79394210901090  3.90817043424342 -0.40500218891889
 6 -7.78361354775478  4.64205092989299 -1.13287739723972
 6 -8.30811026432643  3.74015094499450 -2.10802974737474
 6 -7.75482437293729  2.39273528232823 -1.74552049854985
 6 -8.12282527342734  6.07745765516552 -1.13552306110611
 6 -9.27047141044105  3.97238763696370 -3.14923955675568
 6 -8.67107856155616  4.20339848604860 -4.55557196119612
 7 -6.33867228622862 -0.08195321302130 -1.10351544354435
 6 -7.29133866346635 -0.04793086168617 -2.09457366806681
 6 -7.58422592979298 -1.37794949854985 -2.73784630723072
 6 -6.76619616841684 -2.19117868966897 -2.01401756745675
 6 -6.05989440484048 -1.43502706780678 -1.14770090049005
 6 -8.55001045884588 -1.64958508450845 -3.74427132333233
 6 -6.35296896399640 -3.58719430333033 -1.89490304540454
 8 -6.76469086458646 -4.54761245964596 -2.65686195129513
 6 -5.14414297639764 -3.58821687428743 -0.84416673647365
 6 -5.43726120352035 -4.73096853795380  0.11012468426843
 8 -5.77390316191619 -4.49883889198920  1.25780214361436
 8 -5.24293399159916 -6.00738193459346 -0.39423256785679
 6 -5.44170173437344 -7.03744559785979  0.49237106690669
 6  2.33159413261326 -5.02018313851385  0.67858181258126
 6  3.38541307630763 -4.03026318721872  0.94508240804080
 6  4.02756214641464 -3.16502937303730  0.13249688468847
 6  3.59483382228223 -2.92395733703370 -1.45462496699670
 6  5.10543696949695 -2.14744979257926  0.70149394819482
 6  6.37648251955196 -2.58198112331233 -0.00841937453745
 6  7.58909423302330 -1.61029038453845  0.60911660216022
 6  8.96886770807081 -1.87367220082008 -0.07486526902690
 6  9.55472185388539 -3.32112275267527  0.10397693999400
 6  9.97196777587759 -0.71955219261926  0.47915043054305
 6  11.35300260266027 -0.88583819071907 -0.22316108230823
 6  12.17461515011501  0.33813844134413  0.19006585418542
 6  13.60400285608561  0.56725159505951 -0.56636139933993
 6  14.40710900990099 -0.72962236483648 -0.47760191109111
 6  14.16305224482448  1.82644881648165 -0.17199645444544
 6  15.48510270067007  2.13533156135614 -0.90694568956896
 6  16.11103368776878  3.51759651245125 -0.52667328052805
 6  17.35071032013201  3.94129197079708 -1.41698563376338
 6  17.01353394309431  4.11927681938194 -2.88202042624262
 6  18.01929133523352  5.16970223552355 -0.81618107700770
 1 -2.49641536433643  1.09505378077808  3.62751321972197
 1 -6.40325830463046  5.61332671307131  0.59197818951895
 1 -8.73114352155215  1.30304060696070 -3.27598307710771
 1 -3.95255632043204 -3.32752806820682  2.08278633943394
 1 -2.02699982388239 -1.34486214781478  2.98716999309931
 1 -3.43919369846985 -3.06025918711871  4.12347589158916
 1 -3.53546433913391 -1.22416232063206  4.83003503330333
 1 -4.99195170687069 -1.80274935583558  4.05847979847985
 1 -2.49809512321232 -3.76126564386439 -0.10016063986399
 1 -1.75391322372237 -1.97803691999200  0.00945906750675
 1 -0.61558699219922 -2.91046234183418  2.31949616831683
 1 -1.49466418801880 -4.32199933113311  1.94888668666867
 1 -1.62354246804680  3.58569809420942  4.17311322102210
 1 -2.74014500460046  4.80032723872387  4.52000825852585
 1 -3.15868886388639  2.96632763026303  4.95124013001300
 1 -5.51167423132313  6.39070326472647  2.22175749714971
 1 -10.23576270977098  3.32802345944594 -3.22326557825782
 1 -9.89377017491749  4.85055889999000 -3.01535182588259
 1 -9.38629842964296  4.22396081008101 -5.48213341564156
 1 -7.81899140854085  4.82284202960296 -4.38725868086809
 1 -7.89325917491749  3.38466782558256 -4.85442536733673
 1 -8.71045863546355 -0.96164670757076 -4.57154815311531
 1 -8.31755273827383 -2.69987339243924 -4.01551418841884
 1 -9.54276435593559 -1.61770859425943 -3.42056896359636
 1 -4.28022537993799 -3.74224905150515 -1.36141942884288
 1  2.56389752275228 -6.07342528552855  0.98738469536954
 1  2.10518126152615 -5.07171414751475 -0.42078552815282
 1  3.73254537683768 -4.01539082088209  2.16729173677368
 1  2.56441142784278 -3.42525814691469 -1.59621216221622
 1  3.76027064036404 -1.91905546484648 -1.61433390389039
 1  4.24115628962896 -3.46111984118412 -2.13091201710171
 1  4.72963300420042 -1.28800522452245  0.43878576207621
 1  5.16999552685269 -2.26660829322932  1.76248112841284
 1  6.49553708040804 -3.64416760886089  0.01605948994899
 1  6.40354051445145 -2.25037264626463 -1.14192478797880
 1  7.23271220252025 -0.61046437153715  0.28706595209521
 1  7.61743384628463 -1.69675625872587  1.65683006830683
 1  8.89176328562856 -1.81040931613161 -1.06108944704470
 1  8.86291080978098 -4.14432320372037 -0.15241903430343
 1  10.34591393219322 -3.30078428052805 -0.50837095059506
 1  9.90211927332733 -3.43176426792679  1.35257570027003
 1  9.69985913651365  0.31593731993199  0.49293465726573
 1  9.89967006450645 -0.60005653955395  1.51611115111511
 1  11.73550869216922 -1.89370940284028  0.19181480828083
 1  11.12245833253325 -0.70138304320432 -1.30415174877488
 1  11.55911694519452  1.30546497569757 -0.16650620582058
 1  12.53184800810081  0.19349054045405  1.19701798199820
 1  13.61064786548655  0.61549598189819 -1.68480071877188
 1  14.80749008730873 -0.94352256495650  0.56675235523552
 1  13.72259783078308 -1.67977699399940 -0.75729205070507
 1  15.22019300770077 -0.72859605780578 -1.08182507500750
 1  13.51842003620362  2.60844546364636 -0.24968675637564
 1  14.23795049534954  1.86160644984498  0.97189440334033
 1  16.33608526432643  1.37774638733873 -0.35775226592659
 1  15.41350693409341  2.07932184498450 -1.95836721642164
 1  15.46717812241224  4.46674205220522 -0.65696769486949
 1  16.51847461756176  3.70071671307131  0.55194509490949
 1  18.15608929032903  3.19011050225023 -1.34153323292329
 1  16.28067878827883  4.85488201710171 -3.18498085788579
 1  17.83995991949195  4.42487200050005 -3.44705931103110
 1  16.88034823502350  3.07988905890589 -3.30974900950095
 1  17.93322937013701  5.24199541704170  0.38903056725673
 1  19.02602012431243  5.49065321752175 -1.18949586398640
 1  17.33700525142514  6.20065956905691 -0.93150721202120
 1 -5.35123042444244 -7.96046547964797  0.18878534083408
 1 -6.59626405670567 -7.15275236183618  0.81424493199320
 1 -4.79252742134214 -6.88203977957796  1.32477693429343
 8 -7.60935852745275  6.85832233303330 -0.40655843984398
 1 -8.85539383648365  6.57755340024002 -1.74476015881588

