%nproc=4
%Mem=4GB
# td=(NStates=1) iop(3/107=0140000000,3/108=0140000000) iop(3/107=0140000000,3/108=0140000000) CAM-B3LYP/6-31G(d,p) 

TD

0 1
12 -5.57324883148315  1.19721459575958  0.16256486168617
 6 -4.98746913411341 -2.20572903620362 -0.37463433023302
 6 -3.41638042714271  1.13211349614962  2.78773414671467
 6 -6.29373816951695  4.54067733193319  0.71658186698670
 6 -7.99651541864186  1.24203505420542 -2.37456513001300
 7 -4.32032628592859 -0.34499269106911  1.09681101990199
 6 -4.18873240074007 -1.66453015461546  0.61367371697170
 6 -3.20979410391039 -2.44221752455246  1.42223658735874
 6 -2.86472964396440 -1.36830972187219  2.53437999409941
 6 -3.55827325472547 -0.05063769146915  2.16228081328133
 6 -3.30916395579558 -1.73395683708371  4.05716841624162
 6 -1.88438363156316 -2.66880428972897  0.61225653115312
 6 -0.88184982848285 -3.50384796539654  1.37343093109311
 6  0.32191729222922 -3.89027286798680  0.55039323402340
 8  0.50797086138614 -3.44100141374137 -0.60194642884288
 8  1.15315216091609 -4.69233885118512  1.24508911621162
 7 -4.98978979527953  2.62180155705571  1.51479171087109
 6 -3.92780487028703  2.39244666636664  2.47508811211121
 6 -3.77246675037504  3.66564506670667  3.17847840404040
 6 -4.52736328902890  4.57352888118812  2.51463073437344
 6 -5.37912401660166  3.85773386858686  1.55137122942294
 6 -2.71379674277428  3.90141751755176  4.27338152755276
 6 -4.66095262586259  5.98310573107311  2.86828633343334
 8 -4.11526157415742  6.62486037403740  3.80137403730373
 7 -6.93878767866787  2.61610150595060 -0.65669732603260
 6 -7.02984569936994  3.92651226842684 -0.28843053175318
 6 -7.97703288968897  4.62987971277128 -1.21468557805781
 6 -8.50163961726173  3.64049097899790 -2.05096404080408
 6 -7.78813770427043  2.38812482128213 -1.74500044654465
 6 -8.28447143804381  6.14007391679168 -1.25108461726173
 6 -9.50218458175818  3.81201159935994 -3.18654328712871
 6 -8.89340079377938  3.97539568576858 -4.57925432943294
 7 -6.47994641364136 -0.13418843654365 -1.08739383138314
 6 -7.40423995359536  0.01933586498650 -2.08298250895090
 6 -7.62569007620762 -1.34367607120712 -2.68254077667767
 6 -6.71016056485649 -2.17172674447445 -2.03522968866887
 6 -6.00563897929793 -1.35764933003300 -1.11695782618262
 6 -8.54468992679268 -1.76709683568357 -3.72861975817582
 6 -6.34423809090909 -3.46136172007201 -1.99112266736674
 8 -6.60509490499050 -4.50088778717872 -2.50511677677768
 6 -5.16201476357636 -3.54050210281028 -1.00579289908991
 6 -5.45369284668467 -4.66491193229323  0.13885755755576
 8 -5.83857962956296 -4.43080208830883  1.23381974537454
 8 -5.10502020022002 -5.85335653205320 -0.30731387598760
 6 -5.41711927612761 -6.98180003330333  0.60448227802780
 6  2.31689266246625 -5.06103722392239  0.49660361476148
 6  3.52705724072407 -4.17438759965997  0.87368526832683
 6  4.12192158235824 -3.18743161326133  0.09405304030403
 6  3.65867020592059 -3.01361630293029 -1.27003650815082
 6  5.22407883368337 -2.40147519511951  0.65151895069507
 6  6.54214908620862 -2.64110703590359 -0.04984351695170
 6  7.69620494409441 -1.73024237973797  0.44475016551655
 6  9.06559738103810 -1.97161199479948 -0.17343512601260
 6  9.47227360906091 -3.43902454285429  0.06787332963296
 6  9.98792937203720 -0.90351058845885  0.44788730423042
 6  11.38482578497850 -0.83444305120512 -0.26441520772077
 6  12.30540822942294  0.29958458595860  0.31064791239124
 6  13.67485994179418  0.35878074797480 -0.46852161536154
 6  14.54664296329633 -0.81445084768477 -0.21754590549055
 6  14.36120205980598  1.77737390899090 -0.01334058885889
 6  15.60387457785779  2.09349737793779 -0.86853184818482
 6  15.93658624302430  3.54031878467847 -0.60372098529853
 6  17.29775502460246  3.91705954755476 -1.30465440064006
 6  17.21116370607061  3.89125401710171 -2.78010023422342
 6  17.84260366646664  5.28246351165116 -0.86887634653465
 1 -2.60864658745875  1.19310358575858  3.46848731713171
 1 -6.34738271707171  5.66037141754175  0.94523351505150
 1 -8.87797820502050  1.56444674757476 -3.15006048484848
 1 -3.62755382018202 -3.24333964936494  1.87801586238624
 1 -1.78767589148915 -1.01248891049105  2.69010028612861
 1 -2.86076585568557 -2.74285744694469  4.22345588958896
 1 -2.89017981068107 -1.10248015241524  4.97908993879388
 1 -4.48306081778178 -1.71194027492749  4.05492944344434
 1 -2.25029034273427 -3.19376889418942 -0.35994661846185
 1 -1.40851868426843 -1.71391050735074  0.33643176477648
 1 -0.83736917041704 -3.08333962956296  2.37632185088509
 1 -1.36392111371137 -4.36471360256026  1.56554835283528
 1 -1.79573968776878  3.41725124952495  3.96253216291629
 1 -2.66354734483448  4.97829503550355  4.37137339503950
 1 -3.06837983298330  3.57476847434743  5.40710571657166
 1 -5.25753881778178  6.63646784118412  2.27310263166317
 1 -10.29966910041004  3.11524218131813 -3.28345159685969
 1 -10.22441323922392  4.71126497059706 -2.85309560026003
 1 -9.69062886268627  3.76470488448845 -5.38289349164916
 1 -8.29511902130213  4.84792453785379 -4.78236819181918
 1 -8.31539138813881  2.97762712151215 -4.77722764756476
 1 -8.61253884348435 -0.92516305920592 -4.65582658095810
 1 -8.57492847584759 -2.85031843694369 -3.97849048604860
 1 -9.57126720622062 -1.47333415681568 -3.34040094679468
 1 -4.29303666106611 -3.74968979557956 -1.53372665956596
 1  2.48284941794179 -6.06748469146915  0.75041099799980
 1  2.35959670307031 -4.98819579567957 -0.49454290389039
 1  4.05379750205021 -4.23696297809781  1.94371937953795
 1  2.56701168786879 -3.06813243434343 -1.41923446444644
 1  3.74987960126013 -2.08944250355036 -1.55533800430043
 1  4.04814698869887 -3.67320104930493 -2.23629255515552
 1  5.04595463636364 -1.23784020802080  0.46713859735974
 1  5.36079460676068 -2.42773440584058  1.99276415671567
 1  6.75819334603460 -3.93939713181318  0.06757464146415
 1  6.45575573597360 -2.58132574157416 -1.04369496499650
 1  7.44032296359636 -0.67691101620162  0.42023926942694
 1  7.82708481138114 -2.04130071317132  1.65268965426543
 1  9.10276438573857 -1.56339461466147 -1.27218055615562
 1  8.93559807850785 -4.05904467586759 -0.60169396179618
 1  10.53634297509751 -3.43989819191919 -0.23209332283228
 1  9.38208727012701 -3.72774386588659  1.12792323502350
 1  9.45867501810181  0.13560928712871  0.31774713851385
 1  10.21730182768277 -0.91269780368037  1.55550509050905
 1  11.94058920022002 -1.88210824272427 -0.05875024822482
 1  11.12043813051305 -0.59650255515552 -1.25787712131213
 1  11.76913794729473  1.32747717691769  0.41485192999300
 1  12.51957678097810  0.23673486488649  1.31830011021102
 1  13.32378917961796  0.27516194849485 -1.55501774047405
 1  14.83322266056606 -0.90897911061106  0.82237791779178
 1  13.93748931993199 -1.86749576587659 -0.33615993749375
 1  15.51119210761076 -0.84833803200320 -0.85759265176518
 1  13.69454764896490  2.44753937303730 -0.17133892159216
 1  14.67761446174618  1.70838112731273  1.19510672457246
 1  16.45767742354235  1.34921353405340 -0.56786327702770
 1  15.33411899529953  1.71659557235724 -1.90503188288829
 1  15.17719912451245  4.20172555055505 -1.18616061416142
 1  16.07429019911991  3.86387302870287  0.52749264966497
 1  18.23193687508751  3.14632612381238 -1.02716179577958
 1  16.49924064446445  4.66151268016802 -3.21536389618962
 1  18.25620154365437  3.83681319461946 -3.34651925702570
 1  17.04550475067507  3.00732180218022 -3.27034506910691
 1  18.21636768396840  5.20430164766477  0.02117378157816
 1  18.53458098039804  5.63707785998600 -1.61765868026803
 1  16.98146969786979  5.82888239133913 -1.17897195849585
 1 -4.93310861226123 -7.76742617571757  0.05009147144714
 1 -6.46294072437244 -7.14838192479248  0.73110661816182
 1 -4.87928609720972 -6.90876245184518  1.48639309590959
 8 -7.78260585218522  6.84908140894089 -0.43303108710871
 1 -8.91093939103910  6.65437108200820 -1.94116979977998

