%nproc=4
%Mem=2GB
# td=(NStates=1) iop(3/107=0140000000,3/108=0140000000) iop(3/107=0140000000,3/108=0140000000) CAM-B3LYP/6-31G(d,p) 

TD

0 1
12 -6.64346691879188  0.63137228132813  0.03694131363136
 6 -4.61111821832183 -1.99611803360336  0.37524780178018
 6 -4.28542035743574  2.78040967406741  1.09799268086809
 6 -8.92682538723873  3.07378140224022 -0.32622212391239
 6 -9.38536663426343 -1.74793782338234 -0.67955801450145
 7 -4.73310838273827  0.32099149684969  0.52073110521052
 6 -4.03110037563756 -0.91615132193219  0.59167972337234
 6 -2.62161558015802 -0.64281604080408  1.00193225552555
 6 -2.49240920672067  0.85090523932393  1.35121728422842
 6 -3.88891515441544  1.35523560876088  0.87860263496350
 6 -2.23906019171917  1.04540633653365  2.75748031083108
 6 -1.70202895129513 -1.05452801620162 -0.09019769346935
 6 -0.08616673497350 -1.16907861446145  0.48245731923192
 6  0.91041212041204 -1.37905514241424 -0.77358553235324
 8  0.78025809390939 -0.77548016051605 -1.81821281148115
 8  1.96251653825383 -2.08270856945695 -0.37956287878788
 7 -6.65467720992099  2.45180555055506  0.15748949684968
 6 -5.49124968586859  3.21914055725573  0.60952724892489
 6 -5.78416263146315  4.60990067486749  0.67078194679468
 6 -7.22308302170217  4.73095918641864  0.16108269156916
 6 -7.73877558145815  3.40157896629663 -0.04722989158916
 6 -4.90001492179218  5.71573900440044  0.91635930393039
 6 -7.99943150445044  6.05796271637164  0.03853337703770
 8 -7.35181909810981  7.18127974457446  0.16459431623162
 7 -8.84621817531753  0.78006886608661 -0.53235588468847
 6 -9.50147381978198  1.82298703400340 -0.56310736303630
 6 -10.89153578387839  1.73617348844884 -0.74757053825383
 6 -11.09743410091009  0.28203910831083 -0.94969582508251
 6 -9.76899856315631 -0.37369553275328 -0.74057613431343
 6 -11.91670844614461  2.74401059415942 -0.92268691949195
 6 -12.39281240174017 -0.44148771107111 -1.35692382608261
 6 -12.52294915701570 -0.66686885208521 -2.73134592929293
 7 -6.86357284018402 -1.42644520582058 -0.14535718021802
 6 -8.16121878347835 -2.27834783148315 -0.40312351035103
 6 -7.63016060116012 -3.61356867926793 -0.44315532563256
 6 -6.27003262446245 -3.64092325322532 -0.17077533813381
 6 -5.84521080978098 -2.16588540304030 -0.05163897959796
 6 -8.45761428492849 -5.00770814861486 -0.62734555045505
 6 -5.15517172167217 -4.47726352445245  0.18151617731773
 8 -5.08847059575958 -5.65435597389739  0.22506301290129
 6 -4.07037076247625 -3.54791535073507  0.43395804300430
 6 -3.53677718861886 -3.73939011451145  1.93186289928993
 8 -4.09715495559556 -4.08661539633963  2.93952262206221
 8 -2.23363503840384 -3.67315362066207  1.90683062226223
 6 -1.38776729882988 -4.01630672077208  3.20547497269727
 6  3.09727161996200 -2.19212438933893 -1.29950119421942
 6  4.19475324272427 -1.25984298539854 -0.59909544184418
 6  5.10831158655866 -0.62226909830983 -1.35668186978698
 6  5.14743872767277 -0.65854898959896 -3.02606958915892
 6  6.10453427802780  0.15840818791879 -0.78090464896490
 6  7.55275396939694 -0.55179096119612 -0.83750048734873
 6  8.60780334063406  0.33656929152915 -0.17524600510051
 6  9.89336242564256 -0.54647156745675 -0.16155446114611
 6  9.62506002230223 -1.64647346204620  0.94683905270527
 6  10.95774810481048  0.60891574577458  0.30521535993599
 6  12.51932720322032 -0.13604229702970  0.37942625382538
 6  13.61266280888089  0.89697697239724  0.59467236563656
 6  15.06381271647165  0.40089336743674  0.50221488358836
 6  15.25709069716972 -0.59945222572257  1.86395631963196
 6  16.06246587498750  1.48849375137514  0.58599180448045
 6  17.40167964606460  0.60530575497550 -0.12567944184418
 6  18.45013456085609  1.69727691889189 -0.22273242004200
 6  19.88871107220722  1.20147864266427 -0.95223530723072
 6  19.65360516181618  0.94348977927793 -2.50175596679668
 6  20.95350251915191  2.28082950095010 -0.45536063196320
 1 -3.45671630993099  3.45478672967297  1.45501490319032
 1 -9.81849583208321  4.00480956605661 -0.43143677757776
 1 -10.33407589918992 -2.61306170547055 -0.82818564446445
 1 -2.09314183098310 -1.09234685248525  1.97260730903090
 1 -1.83570290889089  1.36825730193019  0.48535498889889
 1 -0.90403178687869  0.81542985738574  3.25323603470347
 1 -1.90030820472047  2.36438501490149  2.81551766956696
 1 -2.90286261876188  0.63042092739274  3.79748561766177
 1 -2.21735075537554 -1.83419469246925 -0.83888167496750
 1 -1.62681785078508 -0.30309178207821 -0.68920871167117
 1  0.42319031733173 -0.22472390569057  1.02281814701470
 1  0.24700098029803 -1.96200253405341  1.33470370247025
 1 -4.01153568396840  5.71171899979998  0.29238419611961
 1 -5.21877215781578  6.66842951885189  1.08461536763676
 1 -4.76451747994799  5.48136709770977  1.68678645094509
 1 -9.11407442154215  5.84910001920192 -0.04475085088509
 1 -12.48326788038804 -1.46829769726973 -0.78138256545654
 1 -13.45251146614661  0.23932033183318 -1.09127676407641
 1 -13.36519434253425 -1.32871498689869 -2.89125624272427
 1 -12.92600956475648  0.31567898939894 -3.16862903240324
 1 -11.76998382278228 -1.12237555455546 -3.14545115251525
 1 -9.05901508480848 -4.70823737933793 -1.61613384138414
 1 -7.66308152275228 -6.02805281788179 -0.53915356725673
 1 -9.25550283028303 -5.26975893709371  0.10441505100510
 1 -3.14489407080708 -3.71201492639264 -0.16112441924192
 1  3.16575819121912 -3.31207848164816 -1.34212993009301
 1  2.78704299309931 -1.66356227122712 -2.42722295759576
 1  4.35763309100910 -1.10089283768377  0.44461806340634
 1  3.96435949294930 -0.48762223472347 -3.48832894789479
 1  6.00740431883188  0.08181950655066 -3.75420664456446
 1  5.79086291369137 -1.81441405570557 -3.36633081688169
 1  6.16320674257426  1.45662099949995 -1.42002461966197
 1  5.71273638303830  0.52235778357836  0.18681441804180
 1  7.54711589048905 -1.31256945404540 -0.30009828822882
 1  7.87475287368737 -0.80102889318932 -1.90787026292629
 1  8.78721085248525  1.29393998879888 -0.75978876417642
 1  7.92198069616962  0.60647583578358  0.65214092249225
 1  9.66057850495049 -1.09728717241724 -1.19654681228123
 1  8.65162740704070 -2.42436125182518  0.37252561336134
 1  10.57810387978798 -1.99671355255526  0.85449734113411
 1  9.65924913651365 -1.48688991139114  1.94243554865487
 1  10.74537817561756  1.40147290719072 -0.28514568616862
 1  10.61385113171317  1.31406028162816  1.57116099639964
 1  12.55548309050905 -0.89623206270627  0.97413109640964
 1  12.79942209620962 -1.07664588518852 -0.54748774627463
 1  13.56581145114511  1.78872841784178 -0.03581248584858
 1  13.64632667746775  1.38349260056006  1.65102089148915
 1  15.21100252605260 -0.20829834583458 -0.47240543174317
 1  14.72881278117812 -0.06769637413741  2.95527830083008
 1  14.40674794829483 -1.58917658955896  1.63647114521452
 1  16.23597063016302 -1.25504908800880  1.99024550225023
 1  15.83169430433043  2.43465345874587 -0.30422039673967
 1  15.95031906450645  2.09434897039704  1.72341066426643
 1  17.75041635673567 -0.45254208360836  0.90786097279728
 1  17.21371889608961 -0.04132596339634 -1.22248362576258
 1  18.16193120022002  2.73910045784578 -0.76271926022602
 1  18.89601959805981  1.90399430633063  0.89609628012801
 1  20.15528809000900  0.25993884008401 -0.27768441764176
 1  19.89914823282328  2.35792084168417 -3.04040616581658
 1  20.48934322432243  0.55131332953295 -2.89953408680868
 1  18.74979770677068  0.14383666526653 -2.93827190189019
 1  21.34019079767977  2.20208978807881  0.76439719331933
 1  21.99318705900590  1.94706128882888 -1.34287700270027
 1  20.45450210311031  3.31755924312431 -0.73040783708371
 1 -0.54968059315932 -4.48546129552955  2.65408375637564
 1 -1.81627130813081 -4.76076335003500  3.66713735033503
 1 -1.02210622392239 -3.15960443754376  3.29380353355336
 8 -11.58064643894389  3.90805560476048 -0.90707252095210
 1 -13.07077758925893  2.31949318941894 -1.10812141714171

