%nproc=4
%Mem=2GB
# td=(NStates=1) iop(3/107=0140000000,3/108=0140000000) iop(3/107=0140000000,3/108=0140000000) CAM-B3LYP/6-31G(d,p) 

TD

0 1
12 -6.78683125522552  0.67364650875088  0.02295991549155
 6 -4.50170727722772 -2.10519894169417  0.45684596159616
 6 -4.00062187758776  2.78169980308031  0.87572045364536
 6 -8.79849255395540  3.21173519761976 -0.20888038973897
 6 -9.17042514011401 -1.67708073767377 -0.82146220492049
 7 -4.56651172307231  0.45017441514151  0.65989502160216
 6 -3.81641890749075 -0.85667537433743  0.62601315671567
 6 -2.47177059565957 -0.60566232543254  1.11707376967697
 6 -2.30018998479848  0.82387253605361  1.39589175167517
 6 -3.68822508540854  1.41944202940294  1.07851262596260
 6 -2.02200848654865  1.09600139603960  2.82367693049305
 6 -1.52167091549155 -1.08109067246725  0.09295062136214
 6 -0.21736985528553 -1.01202290889089  0.46543561706171
 6  0.79474055325533 -1.41103834073407 -0.65768394219422
 8  0.73360342844284 -1.10667327982798 -1.76952794299430
 8  1.80684097069707 -2.24667496609661 -0.19890481298130
 7 -6.45039678187819  2.50838120812081  0.22833658155816
 6 -5.29770033093309  3.20376902010201  0.74889118531853
 6 -5.58875309050905  4.63842352715271  0.72798766736674
 6 -6.95206591999200  4.76627271777178  0.36055263856386
 6 -7.58706040994099  3.44715352375237  0.17475230663066
 6 -4.86015093539354  5.75025245574557  1.13091075907591
 6 -7.85966752805280  6.04530145024502  0.35582510621062
 8 -7.32372628882888  7.13147476407641  0.61981983878388
 7 -8.68213176667667  0.71737259645965 -0.31683433253325
 6 -9.32662633503350  1.88273300860086 -0.47290834313431
 6 -10.70252688298830  1.64884475557556 -1.00967674887489
 6 -10.85190954845485  0.34854575897590 -1.19410026552655
 6 -9.44680634393439 -0.16828499169917 -0.78485056175618
 6 -11.72027880318032  2.71509770287029 -1.30871552235224
 6 -12.09208232873287 -0.40352391469147 -1.51658979267927
 6 -11.90068693079308 -1.01735390059006 -3.11322411711171
 7 -6.85795227812781 -1.38076063736374 -0.01052369686969
 6 -7.97061972357236 -2.24365436213621 -0.43793699169917
 6 -7.62890047514751 -3.54396171857186 -0.42393340344034
 6 -6.31773739493949 -3.52160132103210 -0.19480774137414
 6 -5.94042033073307 -2.21732054655466  0.07033321762176
 6 -8.49722824632463 -4.58971634943494 -0.83838665456546
 6 -5.08572477697770 -4.38573437153715  0.07411543724372
 8 -5.11584333303330 -5.63007354565457  0.14496500310031
 6 -3.90497422282228 -3.41272183138314  0.41941658885889
 6 -3.41642515341534 -3.81158733423342  1.85274498749875
 8 -3.88058329842984 -4.02156889168917  2.93849251905191
 8 -2.04312598749875 -3.67098340364036  1.83518345754575
 6 -1.20315883798380 -4.02475756585659  3.01994641984198
 6  2.80218211101110 -2.56834201110111 -0.89233047714771
 6  3.96910067746775 -1.44726172727273 -0.80862639493949
 6  4.95217597299730 -1.16709358075808 -1.63956015761576
 6  5.17596157995800 -1.93496663136314 -2.98480546274627
 6  5.94751857645765 -0.14825247814781 -1.16356291479148
 6  7.31758045204520 -0.89312509460946 -0.63426016331633
 6  8.33154571487149  0.19437507210721 -0.30932941344134
 6  9.60605369476948 -0.35343226352635  0.11731342564256
 6  9.67458497479748 -0.82528134283428  1.45400976977698
 6  10.61537386738674  0.70724557875788  0.13852869126913
 6  12.03197846834684  0.24612591979198  0.13887219841984
 6  13.19150069266927  1.21305858055806  0.08639153755376
 6  14.60801713691369  0.53523680178018  0.47712237433743
 6  14.67996298439844  0.11223894339434  1.82947287128713
 6  15.81689131753175  1.43775867786779  0.10771397669767
 6  17.14726420452045  0.74039926432643 -0.20704757865787
 6  18.22235178257826  1.69219641084108 -0.37410755755576
 6  19.56115831693169  1.21831032583258 -0.60787087078708
 6  19.61934173547355  0.61556698699870 -2.05095088628863
 6  20.52715988488849  2.29747116511651 -0.55665076097610
 1 -3.47558819711971  3.62403365436544  1.27617701940194
 1 -9.61094507700770  4.04524360946094 -0.55413904780478
 1 -9.88478096969697 -2.40603100240024 -1.46566939283928
 1 -2.48084060086009 -1.04134175197520  2.08779882818282
 1 -1.62423176177618  1.48980945714571  0.36379283268327
 1 -0.72424380808081  0.82707102150215  3.12476318741874
 1 -1.97395556945695  1.89422799919992  3.12594871267127
 1 -2.64329666216622  0.73751163646365  3.43333920302030
 1 -1.81246026632663 -2.37466873987399 -0.09526731353135
 1 -1.49877504650465 -0.53025449834984 -0.94161395219522
 1  0.11185918421842  0.14878344504450  1.07602346754676
 1  0.12465874607461 -1.62538887268727  1.47887811991199
 1 -3.52487701810181  5.47463529142914  0.70489544724472
 1 -5.14039432003200  7.04845752165216  0.58556546264626
 1 -4.93783481168117  6.05694465546555  2.17296506880688
 1 -8.99171218531853  6.00918602780278  0.19126275047505
 1 -11.77832738633863 -1.42509337683768 -0.89190361756176
 1 -13.27921413641364 -0.01514511471147 -1.55298293469347
 1 -12.69883770687069 -1.72721483688369 -3.52276939403940
 1 -11.76311327512751  0.02581000250025 -3.72546471597160
 1 -10.90305713011301 -1.64631794879488 -3.10249685708571
 1 -9.00697988128813 -4.58842539813981 -1.77625985398540
 1 -7.91949716431643 -5.53346335893589 -0.76791644354436
 1 -9.54847212721272 -4.33262522372237 -0.07325271577158
 1 -2.96519610101010 -3.51451517641764 -0.10814912171217
 1  3.04834645004501 -3.70088736253625 -0.44481019811981
 1  2.49574386318632 -2.79758567356736 -1.84007424272427
 1  3.71124845254525 -1.27013976237624  0.18313191479148
 1  4.24959801680168 -2.42761623412341 -3.82658277327733
 1  5.69266284468447 -1.26648532393239 -3.69516073997400
 1  6.20447427482748 -3.08154076837684 -2.61121530533053
 1  5.93813423532353  0.74579991739174 -1.71030364756476
 1  5.47677278667867  0.42566811461146 -0.18365262866287
 1  6.90352153105311 -1.77991618871887  0.28232995459546
 1  7.77039243764376 -1.39679847014701 -1.37644712061206
 1  8.57792992439244  0.85142573737374 -1.07860064536454
 1  8.06524502260226  0.41995718391839  0.52729843824383
 1  9.80820326742674 -1.30135757945795 -0.49012617021702
 1  8.70875311961196 -1.44144295999600  1.69323768456846
 1  10.19959602900290 -1.21117499869987  2.15164705610561
 1  9.37208041964197 -0.02253347574757  2.22990429552955
 1  10.51517515531553  1.45101786168617 -0.43534070567057
 1  10.44617436403640  1.29788866446645  0.83525740604060
 1  11.96151369356936 -0.33005544504450  1.01041472477248
 1  12.15609776377638 -0.59828804940494 -0.83889688718872
 1  13.34438930893089  1.74615416041604 -0.70626953155315
 1  12.92498454325433  1.97840209150915  0.66714250365036
 1  15.00177160296030 -0.29238675467547 -0.10257844904490
 1  14.47088698859886  0.72535293079308  2.86151892489249
 1  14.04454172767277 -0.85029270117012  1.90193769186919
 1  15.70279731283128 -0.15916950005001  1.96724320202020
 1  15.34893602850285  1.77555754915492 -0.77299727442744
 1  15.72081611421142  1.89893942944294  0.92076039923992
 1  17.66369768486848  0.18656182678268  0.81511169786979
 1  16.92708023222322 -0.24406623742374 -1.19660103750375
 1  17.82340734783478  2.54748129592959 -1.31725471377138
 1  18.29834983108311  2.47167107400740  0.25079174967497
 1  19.72277483868387  0.69935278147815  0.18805215601560
 1  19.44389270727073  1.30678572817282 -2.70316244144414
 1  20.76290058005801  0.21044924312431 -2.31316544994499
 1  18.49650237723773 -0.32822054045405 -2.23491156585659
 1  20.79463624222422  2.45748532763276  0.56292704630463
 1  21.59494723502350  1.99624620732073 -1.06994970997100
 1  20.60014666756675  3.43833132033203 -1.31657645394539
 1 -0.36446207130713 -4.43642639203920  2.61913026102610
 1 -2.02319200020002 -4.89187646134614  3.10714135073507
 1 -1.24488850215022 -3.09704818191819  4.11161531473147
 8 -11.43066144044404  3.89052385158516 -1.29313112681268
 1 -12.68135864736474  2.30323156325633 -1.72538314331433

