%nproc=4
%Mem=4GB
# td=(NStates=1) iop(3/107=0140000000,3/108=0140000000) iop(3/107=0140000000,3/108=0140000000) CAM-B3LYP/6-31G(d,p) 

TD

0 1
12 -5.69279078567857  1.17590246454645  0.20214882008201
 6 -5.08913930113011 -2.13541200450045 -0.28005487228723
 6 -3.53388217731773  1.12435272007201  2.92115748904890
 6 -6.16692548824882  4.46531979617962  0.68252846164616
 6 -8.08137390449045  1.11964281498150 -2.35596326982698
 7 -4.52316656995700 -0.36073426522652  1.16642798159816
 6 -4.45125865336534 -1.64333803540354  0.83957630723072
 6 -3.29337246174617 -2.24319762256226  1.49731409510951
 6 -3.02720589158916 -1.42318520942094  2.69961651775178
 6 -3.69717714511451 -0.14181680938094  2.23731831703170
 6 -3.52501554095410 -1.77632107350735  3.98957165656566
 6 -2.03489868306831 -2.63814122342234  0.72100740624062
 6 -1.01965360886089 -3.52434001460146  1.46135972397240
 6  0.14674977547755 -3.74438827952795  0.61340953565357
 8  0.48768883318332 -3.26666397999800 -0.43907014121412
 8  1.03020986668667 -4.56822643994399  1.32000660796080
 7 -4.99260007630763  2.53207258415842  1.49624985668567
 6 -4.08337042684268  2.34850227192719  2.51361196449645
 6 -3.82403190689069  3.58863736593659  3.20278083428343
 6 -4.49182973567357  4.53520504880488  2.55077434873487
 6 -5.24067017121712  3.94677277247725  1.47126321862186
 6 -2.87792315541554  3.66001337713771  4.35248943834383
 6 -4.70057658825883  5.95865328582858  2.84354385918592
 8 -4.09185923392339  6.50236812481248  3.80684458435844
 7 -6.92979677957796  2.55861575737574 -0.64627628392839
 6 -7.04475719051905  3.91724134133413 -0.37196888558856
 6 -7.96931211761176  4.55792251705171 -1.16965107460746
 6 -8.49192864616462  3.56498342824282 -2.09527847224722
 6 -7.81971086158616  2.38658466726673 -1.72668861536154
 6 -8.36464945584559  6.01629153855386 -1.19720922972297
 6 -9.50117448074808  3.81281167936794 -3.27385201800180
 6 -8.80760221392139  4.26470461666167 -4.52914931893189
 7 -6.41904032303230 -0.16707172487249 -1.10089518151815
 6 -7.37773730333033 -0.00888695729573 -1.97347155785579
 6 -7.52419992719272 -1.32256395999600 -2.76126864946495
 6 -6.65938548734874 -2.18768834063406 -2.12234840054005
 6 -5.98004642004200 -1.43269683478348 -1.07198332873287
 6 -8.31881733953395 -1.59653977997800 -3.88306520272027
 6 -6.08655232233223 -3.51249683358336 -2.05550910601060
 8 -6.51029542504250 -4.49882758115812 -2.73376964206421
 6 -5.10837940004000 -3.53199125172517 -0.88896121592159
 6 -5.35953343074307 -4.67652309340934  0.11032470427043
 8 -5.80415618721872 -4.43899290739074  1.20003636703670
 8 -4.98920861906191 -5.81451264766477 -0.47541068566857
 6 -5.27476504070407 -6.98148000130013  0.39309113891389
 6  2.25525649884989 -4.83551467166717  0.76510046444644
 6  3.32274680968097 -3.84514467536754  1.14789268906891
 6  4.07594698489849 -3.20368323842384  0.18869250425042
 6  3.88623296219622 -3.15920086138614 -1.30867037153715
 6  5.24188061386139 -2.18286333393339  0.59858365716572
 6  6.61305617691769 -2.68741166636664 -0.01911044364436
 6  7.71042636623662 -1.72835219071907  0.49255494599460
 6  9.13370419171917 -2.00887572117212 -0.12643042554255
 6  9.60793717541754 -3.36431707210721  0.20028657095710
 6  10.11770234933493 -0.89302954035404  0.49660217571757
 6  11.42309961236124 -0.92056166306631 -0.24338310451045
 6  12.33425111371137  0.17143177067707  0.21297814541454
 6  13.70539299509951  0.35648051795180 -0.54146891009101
 6  14.75391369036904 -0.80017942054205 -0.49638378927893
 6  14.39693563316332  1.76328249984998 -0.14826408120812
 6  15.58429261966197  2.09545757395740 -1.06540153515352
 6  16.24530711511151  3.47483223602360 -0.63494410761076
 6  17.38763401250125  3.79251709330933 -1.49531346654665
 6  17.11904449414941  3.98262315401540 -2.87535976017602
 6  18.01424083018302  5.12194746004600 -0.84009346824682
 1 -2.65448117091709  1.05016929232923  3.62550301870187
 1 -6.49209718851885  5.51020640104010  0.75728472017202
 1 -8.69463987118712  1.04375467836784 -3.13018849764976
 1 -3.58851991679168 -3.25276059145915  1.98605666646665
 1 -2.01226835073507 -1.19059672127213  2.85798707480748
 1 -3.05701548064806 -2.71123428462846  4.42940648464846
 1 -3.57360815351535 -0.81165106950695  4.78256028582858
 1 -4.60633314501450 -1.99641872277228  3.64536848734873
 1 -2.19450476417642 -3.18637815511551 -0.26904752855285
 1 -1.75154298669867 -1.62021113741374  0.49948807040704
 1 -0.69028446194619 -2.93784508010801  2.26469068776878
 1 -1.40135485708571 -4.44324145534554  1.76257805580558
 1 -1.75122523632363  3.39118864326433  3.98897480718072
 1 -2.72460345044504  4.70870807680768  4.56289254695470
 1 -3.12830582558256  3.07132813031303  5.04906991299130
 1 -5.24437750165016  6.59051324572457  2.25772109350935
 1 -10.39551868536854  3.04354501160116 -3.34408766046605
 1 -10.29715051295130  4.66209005310531 -2.72254254495450
 1 -9.43413321312131  4.49957837183718 -5.55773097539754
 1 -8.17919742914292  5.20907065246525 -4.48164811981198
 1 -8.37303715271527  3.32582194099410 -4.84408433323332
 1 -8.02886047564757 -0.95849639253925 -4.72777377567757
 1 -8.49585056805681 -2.62385579067907 -4.36270890789079
 1 -9.44430450995100 -1.33019984338434 -3.92524943164316
 1 -4.08373573097310 -3.67772259885989 -1.52032531943194
 1  2.67010814381438 -5.83815175817582  1.29052500940094
 1  2.45566631003100 -5.13845082118212 -0.45597904750475
 1  3.44529665196520 -3.59802908470847  2.18902390999100
 1  2.89690467716772 -3.52201782288229 -1.62348488948895
 1  3.87275188848885 -2.14301786108611 -1.58180065056506
 1  4.74071624562456 -3.73827755695570 -1.85833475937594
 1  4.88767880878088 -1.16623304730473  0.28546042954295
 1  5.34133266056606 -2.15908754115412  1.54519940024002
 1  6.86284381108111 -3.70456364846485  0.43755163916392
 1  6.65183534393439 -2.84218182718272 -1.36161675717572
 1  7.47750668196820 -0.62453577867787  0.19238648414841
 1  7.73707581048105 -1.92167875097510  1.54214860016002
 1  9.09357346664666 -1.83364163936394 -1.24979831793179
 1  8.95596011471147 -4.09747851925192 -0.38606239863986
 1  10.55631497229723 -3.50649485158516 -0.26463657715772
 1  9.80291935333533 -3.74560565206521  1.20733117581758
 1  9.63052220282028  0.08574430063006  0.12216758055806
 1  10.15460555805581 -1.10171670557056  1.69741928192819
 1  12.12228737003700 -1.87851788368837 -0.20832520572057
 1  11.23308939563956 -0.71534443934393 -1.17798913251325
 1  11.73670470397040  1.13356778597860  0.13343378817882
 1  12.36544136743674  0.20241143254325  1.33309158935894
 1  13.38080488118812  0.36885131743174 -1.51965420412041
 1  14.97720705900590 -0.77831604430443  0.53751943194319
 1  14.27202277327733 -1.81725074137414 -0.78767508900890
 1  15.61954294269427 -0.53840703890389 -1.05380227272727
 1  13.74946314051405  2.61933655275528 -0.32600438813881
 1  14.81463816411641  1.63877416661666  0.87921513541354
 1  16.45051670747075  1.45377399009901 -1.01869836053605
 1  15.23188877227723  2.24603851665167 -2.18653003270327
 1  15.47045845044505  4.16997237523752 -0.49571156925693
 1  16.61109387948795  3.43824046544654  0.46346624702470
 1  18.19476315771577  3.00529202040204 -1.19567864746475
 1  16.50979169956996  4.86331286018602 -2.82556491629163
 1  17.93318924242424  4.01207072037204 -3.68167277237724
 1  16.53501370157016  3.09186025602560 -3.21738977357736
 1  18.37116316351635  4.93492470997100  0.19052071627163
 1  18.87160468276828  5.39135328752875 -1.52141905630563
 1  17.18690024092409  5.85643514661466 -0.78278233953395
 1 -4.80726602800280 -7.83843327642764 -0.11363490119012
 1 -6.41268569886989 -6.94833191979198  0.51952546004600
 1 -4.94200236883688 -6.90063163876388  1.41628608520852
 8 -7.87228482008201  6.92779928072807 -0.52367015101510
 1 -9.10525882298230  6.19248489338934 -1.74329001180118

