%nproc=4
%Mem=4GB
# td=(NStates=1) iop(3/107=0140000000,3/108=0140000000) iop(3/107=0140000000,3/108=0140000000) CAM-B3LYP/6-31G(d,p) 

TD

0 1
12 -5.68481998859886  1.21654652895290  0.22830143534353
 6 -5.02498288548855 -2.27035549884989 -0.39716658345835
 6 -3.43195198429843  1.16942722752275  2.76761213451345
 6 -6.10390918661866  4.55539880408041  0.66450665946595
 6 -7.97007277437744  1.18818966966697 -2.42840051355135
 7 -4.34402865616562 -0.35553374517452  0.98372971177118
 6 -4.29512303980398 -1.63730743234323  0.60355270487049
 6 -3.19566269076908 -2.34021732453245  1.55639000270027
 6 -2.87016018701870 -1.26109900080008  2.72553911001100
 6 -3.55631305870587 -0.03336596429643  2.07080166536654
 6 -3.60475351475148 -1.80623406480648  3.96138883828383
 6 -2.00025521872187 -2.69106651595159  0.64580988648865
 6 -0.84167581108111 -3.51053863446345  1.45555914391439
 6  0.27809290979098 -3.83807764846485  0.57240543524352
 8  0.36520658495850 -3.47742505610561 -0.57653388758876
 8  1.14321116681668 -4.71403102040204  1.22201680898090
 7 -4.89938075437544  2.52811218811881  1.48001823352335
 6 -4.04284637443744  2.39956737843784  2.45078568186819
 6 -3.81001050475047  3.62826132833283  3.19243980018002
 6 -4.63456400910091  4.59102063036304  2.62089136043604
 6 -5.21822792699270  3.92530062526253  1.47859395169517
 6 -2.98414377747775  3.72166954275428  4.42269645904590
 6 -4.65498202880288  6.06692411291129  2.98375788058806
 8 -4.08482853085308  6.67350523852385  3.88433233313331
 7 -6.88218201810181  2.67619751555156 -0.76457811411141
 6 -6.89247196199620  4.01177079427943 -0.34504619331933
 6 -7.80009519591959  4.65204192899290 -1.23484759425943
 6 -8.35209466276628  3.68209513941394 -2.14227317171717
 6 -7.74790368086809  2.38027403620362 -1.79624557105711
 6 -8.41547453835384  5.98743865326533 -1.13210271907191
 6 -9.51071543484349  3.77374777297730 -3.14771940474047
 6 -8.91669312301230  3.90624877107711 -4.65348175217522
 7 -6.29204762376238 -0.14878989668967 -1.08494358635864
 6 -7.32774230383038 -0.01903797239724 -2.08474268496850
 6 -7.60224773197320 -1.31752345594559 -2.73940646324632
 6 -6.59296884568457 -2.17279685148515 -2.09481564726473
 6 -5.92417083248325 -1.40503406850685 -1.13164929532953
 6 -8.66788224602460 -1.58092821882188 -3.76447334353435
 6 -6.28310197729773 -3.51325690959096 -2.02827638273827
 8 -6.54684908040804 -4.47370506890689 -2.71503776887689
 6 -5.18985754785479 -3.57650570317032 -0.88169048884888
 6 -5.44654213161316 -4.61908734983498  0.19576324812481
 8 -5.71479725132513 -4.35762477057706  1.39803616701670
 8 -5.16492619081908 -5.89990118651865 -0.34363750835084
 6 -5.49049661386139 -6.92941479477948  0.63783561336134
 6  2.34932590579058 -5.00759187938794  0.54598855325533
 6  3.48875341034103 -4.10930109100910  0.93159105890589
 6  4.05231462166217 -3.19024189428943  0.12677631263126
 6  3.74186852575258 -2.89777471877188 -1.29456896139614
 6  5.27080350615061 -2.45383043064306  0.66523032183218
 6  6.64368924022402 -2.77151007620762 -0.08537707030703
 6  7.63405872947295 -1.72361171667167  0.40533622412241
 6  9.09075989728973 -2.02345717931793 -0.10643842634263
 6  9.63813019471947 -3.46714735513551  0.21062760506051
 6  10.05300587968797 -0.95313555095510  0.47719023452345
 6  11.47032433483348 -0.93597320422042 -0.28371713791379
 6  12.34363205180518  0.20868549604961  0.25858270587059
 6  13.59374182998300  0.42390726062606 -0.56763152635264
 6  14.52288058705871 -0.77054645724572 -0.34545869676968
 6  14.20536647624762  1.77871404300430 -0.07414666946695
 6  15.42987717811781  2.15647367556756 -1.01156615161516
 6  16.06798938333833  3.53669842264226 -0.65415602880288
 6  17.37911316041604  3.95498333993399 -1.40210414561456
 6  17.31689427912791  4.05362025372537 -2.84505672987299
 6  17.93414282038204  5.20036530183018 -0.73551301020102
 1 -2.83482920572057  1.14448872427243  3.66950741914191
 1 -6.29338731753175  5.64271965236524  0.47247623932393
 1 -8.76758716591659  1.16425672857286 -3.08706418521852
 1 -3.68006907170717 -3.35438075347535  1.77631569236924
 1 -1.77234435833583 -1.02275993759376  2.72271354745475
 1 -2.97841762086209 -2.52202536373637  4.33378692269227
 1 -3.67915870857086 -1.01841174557456  4.83455548534853
 1 -4.50789330103010 -2.18019710061006  3.95741969246925
 1 -2.37087240094009 -3.45452496979698 -0.17064768856886
 1 -1.30833866626663 -2.04433354965497  0.26418454005401
 1 -0.37669310281028 -2.94600589618962  2.30314453315332
 1 -1.22086680828083 -4.42240937213721  1.77613941194119
 1 -1.71873198699870  3.51561108550855  4.14548045774577
 1 -2.97454844494449  4.87102430843084  4.69767602530253
 1 -3.32875587058706  3.02477347484748  5.13716872287229
 1 -5.17717078097810  6.78412260666067  2.35604092549255
 1 -10.10324945844584  2.69755041214121 -3.07657090879088
 1 -10.23675447334734  4.72735657975798 -3.06589688038804
 1 -9.69889968976898  3.74523293729373 -5.27706290859086
 1 -8.25832534193419  4.74792453785379 -4.82188214321432
 1 -8.44597444644464  2.95725508430843 -4.81463138793879
 1 -8.46788437803781 -0.81356189908991 -4.66082708100810
 1 -8.80212119511951 -2.77566097119712 -3.80591322832283
 1 -9.64399447894790 -1.16825364876488 -3.46430333703370
 1 -4.33985134253425 -3.98652347894789 -1.45080836773677
 1  2.23433456645665 -5.96961490449045  0.76841279817982
 1  2.11870261366137 -5.02222919901990 -0.53502695229523
 1  3.66925904820482 -4.39452873467347  2.06041104870487
 1  2.78480346704670 -3.27552317341734 -1.54886742774277
 1  3.65600021332133 -1.83637719701970 -1.38154062456246
 1  4.51052322632263 -3.23394712391239 -1.88023694959496
 1  5.10946098699870 -1.28496492049205  0.68315019851985
 1  5.32654118141814 -2.80981261366137  1.62154703500350
 1  6.85899342604260 -3.64593778587859  0.19378726272627
 1  6.46216637703770 -2.77503511251125 -1.25236583208321
 1  7.42995192649265 -0.70938426352635 -0.09532228672867
 1  7.47863996689669 -1.63185976907691  1.55097948324832
 1  9.07533164246425 -1.85438371357136 -1.25225856395640
 1  8.82829734843484 -4.19496826822682 -0.02422621502150
 1  10.61070041084109 -3.63899810191019 -0.26210632413241
 1  9.68380744214421 -3.78488958045805  1.25201564426443
 1  9.60090924152415  0.08293401960196  0.30698606240624
 1  10.11514161166117 -1.09316585048505  1.58321786178618
 1  11.88272341364136 -1.76027605950595 -0.01041541474147
 1  11.08329441614161 -0.78713161806181 -1.42309364296430
 1  11.87786882038204  1.11644607380738  0.13028347314731
 1  12.75979080238024  0.10688187958796  1.40187846804680
 1  13.37542434313431  0.55823025532553 -1.67649988868887
 1  14.87478681698170 -0.99334754745475  0.70152583258326
 1  14.03955952695270 -1.86168518481848 -0.57821414291429
 1  15.42464345274528 -0.53636683488349 -0.88305519801980
 1  13.47359555375538  2.70352497159716 -0.49260104780478
 1  14.57995469576958  1.85284557375738  1.02398961286129
 1  16.12342399819982  1.39461807450745 -0.71970846154615
 1  15.06947253065307  2.05545945874587 -1.98918029772977
 1  15.21850325492549  4.31553693169317 -0.74316631473147
 1  16.29216198629863  3.42143878527853  0.36401630203020
 1  17.98397207860786  3.02373386458646 -1.20075915551555
 1  16.48928964936493  4.82156868576858 -3.28688104790479
 1  18.35949187268727  4.27227674097410 -3.26788139323932
 1  17.02131233143314  3.01541261126113 -3.34699273387339
 1  17.97443349054905  5.11382259975998  0.20493215741574
 1  19.01274879717972  5.37038119031903 -0.94924183858386
 1  17.40824237513752  6.13924342744274 -1.12449651095109
 1 -5.28213351475148 -7.83740317341734  0.16864332663266
 1 -6.57870230053005 -6.83989107570757  0.81940544804480
 1 -4.99372754135414 -6.77737931353135  1.41813627022702
 8 -7.94195178677868  6.87237373817382 -0.37089487348735
 1 -9.17793609070907  6.22048769366937 -1.84128981178118

