%nproc=4
%Mem=2GB
# td=(NStates=1) iop(3/107=0140000000,3/108=0140000000) iop(3/107=0140000000,3/108=0140000000) CAM-B3LYP/6-31G(d,p) 

TD

0 1
12 -6.79599217131713  0.61331047514751  0.16290390989099
 6 -4.51451855835584 -1.99540796259626  0.50329060606061
 6 -4.28417023242324  2.84438607170717  1.00955383698370
 6 -8.88735143984399  3.29015303940394 -0.30684018571857
 6 -9.11098919651965 -1.75718874847485 -0.76316637533753
 7 -4.66894196609661  0.42477187488749  0.64503353545355
 6 -4.05031229682968 -0.84464417121712  0.74612516791679
 6 -2.56341976057606 -0.58256001520152  1.03037509980998
 6 -2.36860682648265  0.87186733553355  1.18875103760376
 6 -3.98186444934493  1.49399948514852  1.04431920662066
 6 -2.02947923362336  1.37471926782678  2.62262682548255
 6 -1.42590133853385 -1.08104066746675 -0.12911158485849
 6 -0.09374749304931 -1.13287499409941  0.40903997749775
 6  0.90651173037304 -1.54935217211721 -0.86065423922392
 8  0.88421848994900 -1.03635624812481 -1.90978196839684
 8  1.93963425002500 -2.26178647724772 -0.27647256975698
 7 -6.60626236843684  2.62984335433543  0.27559130703070
 6 -5.54967552845285  3.42125076827683  0.67530382658266
 6 -5.79694390959096  4.80596028082808  0.73491836043604
 6 -7.10211092449245  5.00786687718772  0.36132271557156
 6 -7.65675737963796  3.69094790319032  0.08775360676068
 6 -4.90116503680368  5.87702513301330  0.99369703770377
 6 -7.95240680198020  6.21968888898890  0.06498602230223
 8 -7.50345426162616  7.33659527612761  0.21007886468647
 7 -8.72059561306131  0.82203306250625 -0.40441309040904
 6 -9.49649332173217  1.88728346364636 -0.48800985328533
 6 -10.89879650995100  1.54452432353235 -0.81838761996200
 6 -10.95299965746575  0.25320622502250 -0.80069092459246
 6 -9.53465512881288 -0.34182234543454 -0.68341041774177
 6 -11.82772954825482  2.61488768186819 -0.93518816961696
 6 -12.29365248574857 -0.59317287958796 -1.00586872057206
 6 -12.28035489758976 -0.71836400160016 -2.56410920562056
 7 -6.82041852475248 -1.36717927922792 -0.03983662816282
 6 -7.94353701530153 -2.17823782048205 -0.37573077107711
 6 -7.48279586468647 -3.55172249464946 -0.54662567266727
 6 -6.21906752795280 -3.58548770967097 -0.06564482508251
 6 -5.82904919361936 -2.13885269976998  0.15768195249525
 6 -8.35265378887889 -4.73218059585959 -0.96724954085409
 6 -4.99317552205220 -4.48235403350335  0.11868989468947
 8 -4.94913666236624 -5.68218875717572  0.09648015461546
 6 -3.77200092549255 -3.36579713891389  0.39270391759176
 6 -3.18464197509751 -3.73716989248925  1.72323203620362
 8 -3.70070531063106 -4.07518425322532  2.81466013581358
 8 -1.95227690259026 -3.71889819511951  1.57923786298630
 6 -1.13033155525553 -3.98007309740974  3.02311673687369
 6  3.13612550535054 -2.69412458935894 -1.22555379947995
 6  4.01745551295130 -1.46791379247925 -1.02087762006201
 6  4.97326808220822 -1.23942081348135 -2.02550875247525
 6  5.08221220502050 -2.17585071977198 -3.22663964616462
 6  6.02418624322432 -0.17544519741974 -1.61806836533653
 6  7.20861955595560 -0.79621540364036 -0.95350208750875
 6  8.27301986228623  0.27680331493149 -0.55937441794179
 6  9.63798688808881 -0.40184710501050 -0.06392469816982
 6  9.39475699199920 -1.34570338503850  1.24922929172917
 6  10.76200853085309  0.79847470167017  0.23952879127913
 6  12.05590086058606  0.20171147834783  0.20711902310231
 6  13.34758630123012  1.20199747444744  0.15833873227323
 6  14.62954929012901  0.51400467856786  0.60429509160916
 6  14.78318330643064  0.16213393289329  2.13759368336834
 6  15.71876150455046  1.54129903190319  0.09838304360436
 6  17.25872535063506  0.85357058145815  0.26543967006701
 6  18.36908645604560  1.82940013121312 -0.17540768756876
 6  19.81933413451345  1.23432192699270 -0.24048413211321
 6  19.99669947124713  0.03836926722672 -1.35102089328933
 6  20.81088825772577  2.37854927292729 -0.67688278417842
 1 -3.70269090739074  3.53253450445045  1.21844124582458
 1 -9.58799278177818  4.10553963906391 -0.64898853275328
 1 -9.87743023462346 -2.34347474677468 -1.00984381028103
 1 -2.30596311311131 -0.86645426322632  1.97732778107811
 1 -1.75182452105211  1.50887136333633  0.49978643204320
 1 -1.01216259996000  1.07605591999200  2.81949266036604
 1 -2.09253742764276  2.62309088548855  2.73332945074507
 1 -2.44401673417342  0.67926581188119  3.60127599669967
 1 -1.57528654895490 -2.49132040504050 -0.23728151495149
 1 -1.40700586958696 -0.74143561646165 -1.49668945974597
 1  0.49546754505451 -0.07175860916092  1.00260612581258
 1  0.33286956715672 -1.91619795359536  1.32988322042204
 1 -3.83277780818082  6.04129195709571  0.40870582828283
 1 -5.45624590519052  6.66934961086109  0.89502640874087
 1 -4.36091711991199  5.92268122912291  2.23731150345034
 1 -9.11944495859586  6.04828993819382 -0.32801917771777
 1 -12.22557211081108 -1.95700656815682 -0.65346977417742
 1 -13.11587780278028 -0.19004260446045 -0.79132676907691
 1 -13.06939476257626 -0.99162127752775 -2.89690680778078
 1 -12.47120408420842  0.36074349584959 -2.96208837833783
 1 -11.08512533693369 -0.95689900690069 -2.97065367276728
 1 -8.65974515781578 -4.60227678327833 -2.11163339133913
 1 -7.69613482808281 -5.78398841144115 -0.60823047494750
 1 -9.49279655965597 -4.87194915611561 -0.02345773627363
 1 -2.98428801020102 -3.27258098299830 -0.63532183898390
 1  3.18823043844384 -3.68482575637564 -0.88484420152015
 1  2.76790107890789 -2.52544845984598 -2.17550778607861
 1  3.98987631533153 -1.13115586398640 -0.20487688608861
 1  4.16638969596960 -1.95529900240024 -3.81321143614361
 1  5.75166874527453 -2.02380105550555 -3.81195241914191
 1  4.90350417781778 -3.09564217851785 -3.19583376717672
 1  6.48131855375538  0.39978531593159 -2.32749536673667
 1  5.52690780018002  0.64882042984298 -1.14217848124813
 1  7.12143332223222 -1.44910310741074  0.20682240384038
 1  7.55491088948895 -1.89155794609461 -1.84926440234023
 1  8.41055318671867  0.96326692149215 -1.39845263056306
 1  7.97037553565357  1.13861905010501  0.10675638403840
 1  10.18173062016202 -0.99248669236924 -1.06082323992399
 1  8.57795003930393 -2.22232104780478  0.82747110791079
 1  10.61222729212921 -1.97492137333733  1.90522241364136
 1  8.96794000560056 -0.54844606700670  2.03377468256826
 1  10.85292893069307  1.43917667756776 -0.73531070267027
 1  10.47855760236023  1.60737961356135  1.03699758005801
 1  11.99069661186119 -0.66381882138214  1.00088377167717
 1  12.13746590059006 -0.47994621522152 -0.74157715521552
 1  13.43101797179718  2.12204174917492 -0.49201810641064
 1  12.97494953975398  1.55791004230423  1.06953274267427
 1  14.95103652945295 -0.43263077907791 -0.00481867306731
 1  14.71672157205720  1.37045744124413  2.55728850185019
 1  13.81868914241424 -0.61571924382438  2.50074757285729
 1  15.77385441854185 -0.21144472757276  2.44018049574958
 1  15.61258239313931  1.74104409780978 -1.53692366706671
 1  15.55579961256126  2.72144167966797  0.74601292449245
 1  17.42466378147815  0.26551972257226  1.57392757945794
 1  17.46695421962196 -0.11596342714271 -0.35296667406741
 1  18.18075308240824  2.13676022382238 -1.06775976427643
 1  18.60593058915892  2.47995190209021  0.62839951045105
 1  19.87544010521052  0.73411625782578  0.85823917471747
 1  19.97305562356236  0.70411546114612 -2.29399152435244
 1  20.94162845284528 -0.38251005280528 -1.56477061046105
 1  18.79787251425143 -0.90252797119712 -1.14502257695769
 1  20.89205598419842  3.40305988508851 -0.04108335473547
 1  21.87234497479748  1.55952253495350 -0.48406112111211
 1  20.88633528642864  2.69652713991399 -1.95242003830383
 1 -0.33147877297730 -4.64501725112511  2.55377372537254
 1 -1.72765244624462 -4.72448972267227  3.76969760636064
 1 -0.58267228052805 -3.21234971207121  3.46741089428943
 8 -11.84378275257526  3.79940473967397 -0.61061287498750
 1 -12.77880839233923  2.31058229832983 -1.34867547254725

