%nproc=4
%Mem=2GB
# td=(NStates=1) iop(3/107=0140000000,3/108=0140000000) iop(3/107=0140000000,3/108=0140000000) CAM-B3LYP/6-31G(d,p) 

TD

0 1
12 -6.69172174427443  0.56392553665366  0.11670929042904
 6 -4.48754586108611 -2.18033645544554  0.34045432243224
 6 -4.18873068846885  2.74044567766777  1.04219710131013
 6 -8.83980668536854  3.20957498159816 -0.35814531623162
 6 -9.35413351095110 -1.63845687528753 -0.68637869656966
 7 -4.70472554445444  0.31740113781378  0.78505753785379
 6 -3.92239950555056 -0.89413912071207  0.74023457885789
 6 -2.50480389898990 -0.75023678287829  1.08064012631263
 6 -2.38319828562856  0.83487363616362  1.40812297479748
 6 -3.77360362326233  1.40282036723672  1.00112488718872
 6 -2.18466475217522  1.15240703660366  2.80659522232223
 6 -1.51740048844885 -1.05198776217622 -0.20147882158216
 6 -0.22181029932993 -1.41667337393739  0.45192426592659
 6  0.78541962116212 -1.49001623852385 -0.68168634243424
 8  0.61668173627363 -0.73113572607261 -1.70765175537554
 8  1.99024931153115 -2.17992829142914 -0.33200812331233
 7 -6.56793853605361  2.64538490849085  0.47596134403440
 6 -5.50986154705471  3.30476912011201  0.86506280248025
 6 -5.74429864506451  4.80013969876988  0.74371924052405
 6 -6.98786950035004  4.89375546604661  0.28586516981698
 6 -7.59055075897590  3.59549835823582  0.19736456785679
 6 -4.73002792309231  5.67361479197920  1.00080774877488
 6 -7.77213877517752  6.20587750785079  0.11908143184318
 8 -7.35455937213721  7.32073368996900  0.42095995279528
 7 -8.60648420192019  0.87005786498650 -0.56876952605261
 6 -9.38078175057506  1.95946068136814 -0.57375842814281
 6 -10.71181781208121  1.66856672777278 -1.00498627982798
 6 -10.90609496699670  0.19478038243824 -0.91292214771477
 6 -9.53031469476948 -0.20186835003500 -0.75721779847985
 6 -11.70135691099110  2.79148534163416 -1.32296694749475
 6 -12.15120824132413 -0.36498006030603 -1.31399953365337
 6 -12.07272413451345 -0.79126129132913 -2.85531832653265
 7 -6.98185466836684 -1.42674523582358  0.10708806430643
 6 -8.22425508710871 -2.22176217291729 -0.35933913191319
 6 -7.61544913001300 -3.65183250565056 -0.35389639973997
 6 -6.35128074927493 -3.64075323622362 -0.02980124072407
 6 -5.90443673237324 -2.27536635113511  0.18756494079408
 6 -8.53227175067507 -4.84716209400940 -0.69307212311231
 6 -5.08268447294730 -4.44940073817382 -0.06661863616362
 8 -5.13296504520452 -5.57798833713371 -0.14498399179918
 6 -3.97390111551155 -3.40033059225923  0.44475912311231
 6 -3.55108861976198 -3.79755593109311  1.96072578557856
 8 -3.98529376947695 -4.17888462326233  2.89074774457446
 8 -2.02873454835484 -3.65740204550455  1.92381232043204
 6 -1.33939246134613 -3.92497758785879  3.02911733693369
 6  3.07704959775978 -2.41789696659666 -1.26086733083308
 6  4.17467123452345 -1.41864886598660 -0.83735926822682
 6  5.05999675507551 -1.04105097649765 -1.76225242684268
 6  5.24157814161416 -1.69729286398640 -3.02977996019602
 6  6.19550337493749 -0.16787444034403 -1.24013057155716
 6  7.42511120512051 -0.95695147724772 -0.78998573587359
 6  8.43860642094209  0.03505914051405 -0.29959844034403
 6  9.79261235063506 -0.57291421172117  0.03123481778178
 6  9.74801231753175 -1.35352416711671  1.29024339313931
 6  10.84912724272427  0.57069192339234  0.19916475487549
 6  12.16310158065806 -0.08930762356236  0.18716702790279
 6  13.25394693729373  0.96681395609561  0.38378127652765
 6  14.67900423562356  0.34007728582858  0.38158282038204
 6  15.13083807190719 -0.43216549704970  1.63832375637564
 6  15.72918254665467  1.61729663166317  0.06909011431143
 6  17.07066654475447  1.08332355675568  0.03273639973997
 6  18.08575812321232  2.09677686888689 -0.25163531033103
 6  19.58196039713971  1.61471996679668 -0.64372445614561
 6  19.69738954025403  0.42877830813081 -1.79281507270727
 6  20.49539670857086  2.74308572657266 -0.69406450235023
 1 -3.04517515581558  2.96360761176118  1.45229463116312
 1 -9.37635161766176  4.16189527462746 -0.31637527142714
 1 -10.05574806640664 -1.99944034333433 -1.13680650655066
 1 -2.44436695349535 -1.43319093689369  1.82400244854485
 1 -1.60751008960896  1.38732920912091  0.71820827422742
 1 -1.27752913661366  0.85860417481748  3.38840955205520
 1 -2.56013418731873  2.31563013941394  2.87448356615662
 1 -2.95010734323432  0.87747563286329  3.15146101520152
 1 -1.71316033633363 -1.89083035603560 -0.86228401520152
 1 -1.59990515951595 -0.18583005590559 -0.49916970777078
 1  0.04964296259626 -0.85765719901990  0.81417728292829
 1 -0.39164288408841 -2.41281761556156  1.24770500260026
 1 -3.77195172557256  5.40621844974497  0.22643760146015
 1 -5.00549082968297  6.79203187908791  0.44007091319132
 1 -4.53138416661666  5.86396535753575  2.07956572887289
 1 -8.47797081118112  6.12158726792679 -0.11436781258126
 1 -12.32340189378938 -1.05776664416442 -0.72101652885289
 1 -13.17688390339034  0.22922932273227 -0.93025066146615
 1 -12.98432625572557 -1.34445656105611 -2.64925204230423
 1 -12.31783874767477  0.12022944444444 -3.17341951145114
 1 -11.38876570097010 -1.44755807280728 -3.43493010041004
 1 -8.70341952525252 -4.78571512711271 -1.84401662966297
 1 -8.19585480008001 -5.78567858045805 -0.76830648254825
 1 -9.05439271927193 -4.76572853405341  0.19056366586659
 1 -3.16239582098210 -3.63768749364936 -0.32986129292929
 1  3.61201281668167 -3.49577685148515 -1.18870458755876
 1  2.63493778257826 -2.01198711371137 -2.53542377767777
 1  4.08622595029503 -1.03472622102210  0.29743334493449
 1  4.48624168116812 -1.22793626612661 -3.57757787278728
 1  6.19042262066207 -1.52571124652465 -3.47898912281228
 1  5.24929875727573 -2.58516113041304 -3.00668485228523
 1  6.73768419031903  0.56660199759976 -2.32562517971797
 1  5.60761587098710  0.39884543234323 -0.29841410481048
 1  7.14853603250325 -1.55626382348235  0.08507022862286
 1  7.74703010141014 -1.35926471677168 -1.72879235513551
 1  8.54731686308631  0.71360195499550 -0.95467825312531
 1  8.08197669576958  0.64865005320532  0.49197490589059
 1  10.41743419051905 -1.31035847954795 -0.48537569516952
 1  8.92350459475947 -2.45932474817482  1.22085044584458
 1  10.70321639103910 -1.72922680388039  1.53596548794879
 1  9.51378459005901 -0.64796601900190  2.30389169426943
 1  10.75651928972897  1.22950571047105 -0.53927109870987
 1  10.70817056365637  1.18380725632563  1.04656853715372
 1  12.11351889408941 -0.84456689618962  1.04622830613061
 1  12.43529568356836 -0.53093131373137 -0.65301829932993
 1  13.00638550855086  1.83562310731073 -0.59283818841884
 1  13.34046609140914  1.50875512681268  1.36171196059606
 1  14.72036346214621 -0.50941845784578 -0.68560675187519
 1  14.74539443934393 -0.05892549704971  2.43867664066407
 1  14.30531780528053 -1.14407207910791  1.58424592269227
 1  16.13760079317932 -1.07241082418242  1.72318879657966
 1  15.40333146804680  2.08968896229623 -0.85886586128613
 1  15.44390842344234  2.42888242374237  0.75284360756076
 1  17.23369468456846  0.31202437303730  1.13157334403440
 1  16.99864738893889 -0.01780361116112 -0.59637101450145
 1  17.71975698279828  2.67778432623262 -1.14918790709071
 1  18.18924892099210  2.74197810471047  0.43249992049205
 1  19.91564412561256  0.77769061526153  0.48919227002700
 1  19.49748806680668  1.34954000360036 -2.70049217441744
 1  20.56121041104110 -0.67307910971097 -2.05144927832783
 1  18.72641536853685 -0.21819953835383 -1.56621469616962
 1  20.63185996459646  3.25630520962096  0.22194294789479
 1  21.59203694399440  2.31570815351535 -1.23676639163916
 1  20.29708636153615  3.41848933613361 -1.62020681698170
 1 -0.05216084118412 -3.23809655905591  2.63189153715371
 1 -1.19224890589059 -5.10533780748075  3.11643227982798
 1 -1.89139315261526 -3.69445792289229  3.99486363956396
 8 -11.36390476477648  4.05350014921492 -1.36171798549855
 1 -13.16654716621662  2.20404164426443 -1.37984858985898

