%nproc=4
%Mem=4GB
# td=(NStates=1) iop(3/107=0140000000,3/108=0140000000) iop(3/107=0140000000,3/108=0140000000) CAM-B3LYP/6-31G(d,p) 

TD

0 1
12 -5.61643314991499  1.10286516081608  0.20999960516052
 6 -5.00951133833383 -2.12180064336434 -0.36870373717372
 6 -3.45413420252025  1.10405068986899  2.76838221152115
 6 -6.02446124182418  4.54222748694870  0.70177038583858
 6 -8.03062882998300  1.23105395609561 -2.38007568106811
 7 -4.46519077237724 -0.31734992679268  1.07853919271927
 6 -4.35122865036504 -1.53331703330333  0.74601695129513
 6 -3.30997412191219 -2.32681598439844  1.43033739743974
 6 -2.92080525152515 -1.38762165306531  2.65519207530753
 6 -3.64330175757576 -0.12313494119412  2.13313789898990
 6 -3.49038207760776 -1.80599404080408  4.05108780818082
 6 -2.05499069226923 -2.71679908920892  0.62316762226223
 6 -1.06981862536254 -3.71138871947195  1.39354294229423
 6  0.18257335783578 -3.99850369106911  0.61807000170017
 8  0.41975203950395 -3.52766007960796 -0.49666590079008
 8  1.00767761346135 -4.67348696599660  1.41510611791179
 7 -4.92749356565657  2.61666104300430  1.52038226992699
 6 -4.01728381818182  2.35363278497850  2.42174277757776
 6 -3.72508201190119  3.57495599779978  3.14321487768777
 6 -4.48927948064807  4.57363889218922  2.62117138843884
 6 -5.22841894609461  4.00616871207121  1.54155024732473
 6 -2.75695105820582  3.71355873167317  4.27125131453145
 6 -4.67310384098410  6.02751017151715  2.93223272807281
 8 -4.10468051605161  6.58937682568257  3.82225612551255
 7 -6.91801560146015  2.51709160496050 -0.68744040034003
 6 -6.83311602640264  3.86252586978698 -0.35159684838484
 6 -7.82618780518052  4.60437716251625 -1.21148525802580
 6 -8.43554300760076  3.69358628852885 -2.04879382378238
 6 -7.84528341884188  2.41580758955896 -1.74036998349835
 6 -8.16665965686569  5.99695960536054 -1.03839334813481
 6 -9.36000036333633  3.93814421262126 -3.24527916071607
 6 -8.67358881258126  3.91426957315732 -4.61619802380238
 7 -6.42971139013901 -0.07660267796780 -1.14821991399140
 6 -7.37700723032303  0.04506843824382 -2.17521173187319
 6 -7.60950845804580 -1.25257696129613 -2.73844636723672
 6 -6.76425597439744 -2.11959153095310 -2.05903206890689
 6 -6.03105152055205 -1.38769233433343 -1.12548867926793
 6 -8.34611006880688 -1.58915904190419 -4.01437833403340
 6 -6.17489115621562 -3.57053263716372 -2.00709426452645
 8 -6.54162855835584 -4.52472017041704 -2.59681594669467
 6 -5.05774433653365 -3.54853290589059 -0.89185150495050
 6 -5.35360283768377 -4.55709115021502  0.09824349614961
 8 -5.76595236683668 -4.40140914901490  1.18582494589459
 8 -4.88375807400740 -5.83976517291729 -0.30299344394439
 6 -5.38246581078108 -6.90090194349435  0.41703353315332
 6  2.30928190139014 -5.12307342754275  0.78852280668067
 6  3.47504203920392 -4.09190935183518  1.08951685148515
 6  4.07156654685469 -3.33702657275728  0.19182281728173
 6  3.67450178907891 -3.27481242254225 -1.25245474997500
 6  5.16654308010801 -2.44200924852485  0.65004880368037
 6  6.54246911821182 -2.71767469266927  0.06984845224522
 6  7.61782710631063 -1.74389374487449  0.59565525602560
 6  8.99514033533353 -1.91122595619562 -0.02537031953195
 6  9.62486886858686 -3.22755339573957  0.14601114341434
 6  10.06176675577558 -0.89172941034103  0.48127064256426
 6  11.27054435683568 -0.71967157405741 -0.42501126732673
 6  12.15847353595360  0.45606023352335  0.05066191379138
 6  13.54068652445245  0.48618348824882 -0.63451821502150
 6  14.37198549754975 -0.68168757135714 -0.30190434133413
 6  14.23067900750075  1.84700087168717 -0.25113436823682
 6  15.53158734913491  2.09200722892289 -1.04239923492349
 6  16.10880346474647  3.47763251605161 -0.70040065326533
 6  17.39991524062406  3.91677951955196 -1.35006894209421
 6  17.32424501420142  4.06538142984298 -2.90524274847485
 6  17.89702910901090  5.17864312961296 -0.79952941184118
 1 -2.90980670347035  1.21550582598260  3.77872834123412
 1 -6.29680765956596  5.63957933833383  0.81822081378138
 1 -8.60623103030303  1.17423772667267 -3.33294877367737
 1 -3.69145020982098 -3.30571588698870  1.71746980778078
 1 -1.86859398329833 -1.14275193679368  2.68859013511351
 1 -3.02673245234523 -2.76338950015001  4.37662120612061
 1 -3.28809960266027 -1.05241514591459  4.71322335213521
 1 -4.70373288498850 -1.93123220412041  4.18773272377238
 1 -2.32762807650765 -2.98674819211921 -0.39765038883888
 1 -1.46523435583558 -1.80808992529253  0.67840596219622
 1 -1.06352178567857 -3.28914020962096  2.39673389208921
 1 -1.64927964956496 -4.73874100530053  1.47850964896490
 1 -1.75803591739174  3.66850637503750  4.14974088378838
 1 -2.71316230633063  4.73183038903890  4.88240449814981
 1 -3.07355035003500  3.03389438693869  5.00941594759476
 1 -5.51981504540454  6.33230742514252  2.27835315671567
 1 -9.92367150065006  2.99479013611361 -3.21594484618462
 1 -10.08991978987899  4.86067991209121 -3.24186447714771
 1 -9.41517131693169  4.03860227422742 -5.52624782708271
 1 -8.06878638803880  4.73197294269427 -4.71033098809881
 1 -7.93529337833783  3.10590994979498 -4.53529345414541
 1 -8.15482307190719 -0.59992053495350 -4.60797179547955
 1 -7.94599558255826 -2.55264866996700 -4.56210884788479
 1 -9.56331641114111 -1.95376219961996 -3.79486639333933
 1 -4.14662201960196 -3.83276810341034 -1.41336462336234
 1  2.68269940294029 -6.01000894389439  1.38635459235924
 1  2.18335907930793 -5.37898487458746 -0.15533898349835
 1  3.76903902620262 -3.98994827662766  2.14626963456346
 1  2.69433442014201 -3.48043366446645 -1.52877541854185
 1  4.08381299459946 -2.30740429972997 -1.69314178467847
 1  4.17516969096910 -4.19368309750975 -1.67286621252125
 1  4.94548458935894 -1.48568499249925  0.58464034753475
 1  5.23971249854986 -2.47381901430143  1.76416129642964
 1  6.66027355405541 -3.86728992109211  0.28493637763776
 1  6.44794495489549 -2.61639924892489 -1.15520611611161
 1  7.23277220852085 -0.70673399849985  0.58495574107411
 1  7.75713781668167 -2.27304388748875  1.60441482678268
 1  8.84143825312531 -1.53972224742474 -1.04559789788979
 1  8.93853837253725 -4.06710548194819 -0.05178897129713
 1  10.58713805460546 -3.34431863396340 -0.36775688918892
 1  9.62776183758376 -3.52151324282428  1.20195063776378
 1  9.39105825642564  0.09594532073207  0.46743210701070
 1  10.19126922442244 -0.99018555245525  1.65017455745575
 1  11.95294043534353 -1.64672470437044 -0.13747812101210
 1  11.09500558725873 -0.77455035993599 -1.46083741734173
 1  11.65322635613562  1.51264569376938 -0.35054460966097
 1  12.35286010931093  0.43827501890189  1.14064234443444
 1  13.48781558225823  0.71572600490049 -1.88739097779778
 1  14.67604694299430 -0.77425563826383  0.81393707370737
 1  13.78195376637664 -1.64803381968197 -0.72413873537354
 1  15.25739672807281 -0.64368756695670 -0.79693658615862
 1  13.53981217541754  2.67107172627263 -0.36362815051505
 1  14.33302000230023  1.66794708390839  0.80334754865486
 1  16.36223787958796  1.25549416211621 -0.71946843754375
 1  15.02922850625063  1.87666157895790 -1.99484086378638
 1  15.51089249384938  4.06287166516652 -0.93115511361136
 1  15.97402017211721  3.42149879127913  0.54873477387739
 1  18.03608729012901  3.05863735493549 -1.14119319891989
 1  16.52882360276027  4.86261279017902 -3.29948230803080
 1  18.23501942544254  4.42833234653465 -3.26933153825383
 1  16.96076627682768  3.08486955695570 -3.32402043664366
 1  18.28470451765176  4.99694091159116  0.28128979317932
 1  18.73461098339834  5.50318447064706 -1.29862677707771
 1  17.07396894779478  5.84624412751275 -0.69905396669667
 1 -4.95333063446345 -7.87600703380338  0.21878834113411
 1 -6.46563099339934 -7.09698678527853  0.56419992749275
 1 -5.05534370297030 -6.79617119271927  1.61336579317932
 8 -7.74105169676968  6.93557005780578 -0.32454023802380
 1 -8.94593289038904  6.30301594649465 -1.76031171397140

