%nproc=4
%Mem=4GB
# td=(NStates=1) iop(3/107=0140000000,3/108=0140000000) iop(3/107=0140000000,3/108=0140000000) CAM-B3LYP/6-31G(d,p) 

TD

0 1
12 -5.71448295489549  1.15791066536654  0.18212681788179
 6 -5.01500188738874 -2.19679814311431 -0.30748761556156
 6 -3.37430621972197  1.09600988578858  2.70783615691569
 6 -6.25293408910891  4.57561082528253  0.71483169196920
 6 -7.85619138623862  1.21269211991199 -2.43591126462646
 7 -4.53434768806881 -0.35208340014001  1.09205054385439
 6 -4.32071559905991 -1.66464016561656  0.77924027362736
 6 -3.24528765326533 -2.28190149294929  1.39496386008601
 6 -2.88639181018102 -1.39964285518552  2.56121267736774
 6 -3.66911433883388 -0.04577720542054  2.06662124732473
 6 -3.54119715911591 -1.94957839923992  3.87342004140414
 6 -2.02936813001300 -2.71409881918192  0.70002530803080
 6 -1.06153779727973 -3.57634521512151  1.44483807180718
 6  0.20150525102510 -3.93555739643964  0.61344953965397
 8  0.42060212451245 -3.46788410201020 -0.51614784898490
 8  1.02284913061306 -4.66369598689869  1.40600520782078
 7 -5.04141495779578  2.60752012891289  1.53762399409941
 6 -3.99045113491349  2.36121354305431  2.41722232553255
 6 -3.72114161786179  3.64262276447645  3.12237279347935
 6 -4.46291684438444  4.57872940124012  2.55735500680068
 6 -5.33272937713771  3.95916401160116  1.49346543884388
 6 -2.64858022112211  3.79923729952995  4.20931512091209
 6 -4.51762829342934  5.98597601810181  2.89328883368337
 8 -3.90264031203120  6.48879676767677  3.75682958285829
 7 -6.92032583248325  2.62915281108111 -0.65694735103510
 6 -7.00343305810581  3.98969858705871 -0.37401909060906
 6 -7.95173035943594  4.65087181198120 -1.14600871037104
 6 -8.45590504380438  3.69741667156716 -2.09189813421342
 6 -7.74701359185919  2.43095910471047 -1.80318626512651
 6 -8.29856284718472  6.02006191559156 -1.04934444324432
 6 -9.42587695099510  3.86921731993199 -3.15463009580958
 6 -8.82398385208521  4.16318446464646 -4.51319772377238
 7 -6.31628004700470 -0.12294731243124 -1.05115020702070
 6 -7.27013654325433  0.01824575597560 -2.15205941664166
 6 -7.43638114531453 -1.29098080168017 -2.78116063866387
 6 -6.62227177597760 -2.17288686048605 -2.08796496219622
 6 -5.98712712811281 -1.38292185728573 -1.01660779117912
 6 -8.33783924172417 -1.60504063006301 -3.89963685988599
 6 -6.15715938303830 -3.60379596349635 -2.00849440454045
 8 -6.59632402790279 -4.58218591699170 -2.58480474557456
 6 -5.06428499059906 -3.58621667426743 -0.92163448324832
 6 -5.37606508390839 -4.71058649974998  0.03845751755176
 8 -5.86296206780678 -4.52692170027003  1.11221758515852
 8 -5.09256895509551 -5.85040623702370 -0.39112225682568
 6 -5.39760732493249 -6.87216907020702  0.56413824362436
 6  2.32191316451645 -4.89260038023802  0.64849880428043
 6  3.49182371737174 -4.05396555745575  1.10390829062906
 6  4.01951134133413 -3.14545741584158  0.15520915591559
 6  3.69554389328933 -3.14985992729273 -1.25909541404140
 6  5.17688411421142 -2.25478052565257  0.73874767356736
 6  6.54174904620462 -2.60950387558756  0.09359082648265
 6  7.74121944554455 -1.79309866536654  0.79425511601160
 6  9.04496531783178 -2.02044687828783  0.07688990649065
 6  9.66431281298130 -3.37206784718472  0.31543808610861
 6  10.07039761886189 -0.89737997539754  0.56322883838384
 6  11.39004630703070 -0.89434904180418 -0.31469023522352
 6  12.19122681128113  0.39777440494049  0.08872572017202
 6  13.55797825362536  0.48903377327733 -0.58061282448245
 6  14.40282858185819 -0.83769317191719 -0.54420857175718
 6  14.23960990059006  1.74758092969297 -0.28323757855786
 6  15.50851504190419  2.14952298049805 -1.07762275727573
 6  15.99719230363036  3.50067482028203 -0.70130074327433
 6  17.40306555565557  3.94438227982798 -1.34737867306731
 6  17.28875146484648  3.88805369706971 -2.94094631883188
 6  17.87446685278528  5.28264352965297 -0.73265272417242
 1 -2.68756447924792  1.20540481588159  3.42875334373437
 1 -6.29846782558256  5.74841022142214  0.71796078777878
 1 -8.62531293849385  1.24618492139214 -3.35334081288129
 1 -3.64240530533053 -3.28332364776478  1.67709577037704
 1 -1.84822194609461 -1.11863952555255  2.60756203230323
 1 -2.95401518061806 -2.96377953915392  4.01156470047005
 1 -3.20186097879788 -1.21936184058406  4.70598262806281
 1 -4.68846135783578 -2.09516859775978  3.81600555105511
 1 -2.32434774847485 -3.62539205650565 -0.32427305110511
 1 -1.21418925132513 -2.06850596689669  0.46855497709771
 1 -0.74374980848085 -2.93224452005200  2.34647886658666
 1 -1.45692041364136 -4.60925805700570  1.98386018401840
 1 -1.69456957075708  3.54804432883288  3.78945485518552
 1 -2.56057704780478  4.73698090409041  4.51857811551155
 1 -3.09077207220722  3.23901489898990  5.11556656265627
 1 -5.34509757365736  6.64843903830383  2.19111443284328
 1 -10.03612274577458  3.00406106320632 -3.12607585928593
 1 -10.08175897379738  4.60853469756976 -3.00156044674467
 1 -9.66134593439344  4.08847726172617 -5.35789099139914
 1 -8.38425793519352  5.30852059745975 -4.38541849684968
 1 -8.14402425142514  3.43083244204420 -4.95299522432243
 1 -8.03795138473847 -0.94681522442244 -4.82414341264126
 1 -8.19361034403440 -2.70072347744774 -4.21979461646165
 1 -9.42701278077808 -1.33217004040404 -3.43970087678768
 1 -4.09974733213321 -3.83393822042204 -1.57199048594859
 1  2.58395952895290 -6.01811975497550  0.81796775367537
 1  2.16025676907691 -4.85469244534453 -0.46920036963696
 1  3.69286140844084 -4.01779106090609  2.05864087168717
 1  2.62519750645065 -3.20291591269127 -1.44785732673267
 1  4.03393800710071 -2.11092465176518 -1.83050552105211
 1  4.33199537353735 -3.83028675787579 -1.95039396529653
 1  4.95228526942694 -1.07661408540854  0.41661354485449
 1  5.37669619691969 -1.97682931533153  1.80659553985399
 1  6.71717924462446 -3.65382857495750  0.41509939393939
 1  6.35891605200520 -2.45199280828083 -1.02211280678068
 1  7.55809474077408 -0.84494781988199  0.53620086558656
 1  7.76512861576158 -1.94382096519652  1.83391777707771
 1  8.83633774307431 -1.97317559275928 -0.89747308540854
 1  8.89326384508451 -4.22497126852685  0.30430663826383
 1  10.63313265406541 -3.40123432553255 -0.27399751325133
 1  9.77584664606461 -3.32133322482248  1.41584202690269
 1  9.44945409600960  0.15028075427543  0.31160652445245
 1  10.41121121862186 -0.97741427532753  1.65592513251325
 1  11.90057519881988 -1.63509354125413 -0.32422679587959
 1  11.15519160586059 -0.71641454635464 -1.46230756435644
 1  11.78081911541154  1.39785421462146  0.01103154795480
 1  12.38821364466446  0.20798198959896  1.21836011621162
 1  13.31661846254625  0.38424285658566 -1.72313455215522
 1  14.67694703300330 -0.89785799849985  0.54746042604260
 1  13.71245681668167 -1.62982199849985 -0.91459778127813
 1  14.94823581198120 -0.42614581278128 -1.39591648414842
 1  13.38164635883588  2.59130374947495 -0.22828461616162
 1  14.62455915621562  1.75305559475948  0.72319953385339
 1  16.10413206900690  1.38479709240924 -0.70816730743074
 1  15.45432101550155  2.07444135693569 -2.16567794749475
 1  15.22612401700170  4.15691106910691 -0.84253625172517
 1  16.24823759385939  3.45878251965197  0.34344424482448
 1  18.00327400880088  2.99504099529953 -0.97378645824582
 1  16.53533425382538  4.64617114601460 -3.02958531833183
 1  18.19235515901590  4.14363387668767 -3.53577818291829
 1  16.94319451965197  2.72335340534053 -3.25859389398940
 1  18.19459550675067  5.21379259675968  0.36301796599660
 1  18.81949947224723  5.42891704390439 -1.41785870027003
 1  17.25587713861386  6.23021252435244 -0.65436949824983
 1 -4.86468176957696 -7.72903233633363  0.18941540384038
 1 -6.40842527282728 -6.78399548614861  0.69802330983098
 1 -4.93714188278828 -6.42364393999400  1.55873032963296
 8 -7.84558214981498  6.73730023082308 -0.23715149914992
 1 -8.93093139023902  6.40589623452345 -1.81106678947895

