%nproc=4
%Mem=2GB
# td=(NStates=1) iop(3/107=0140000000,3/108=0140000000) iop(3/107=0140000000,3/108=0140000000) CAM-B3LYP/6-31G(d,p) 

TD

0 1
12 -6.62673524562456  0.51634077817782  0.29822744224422
 6 -4.48359546604661 -2.09767818961896  0.48788906590659
 6 -4.12611442684268  2.82745437853785  1.05436831843184
 6 -8.97435013971397  3.18636266036604 -0.38932843454345
 6 -9.36958505610561 -1.65544857445745 -0.59056911561156
 7 -4.67184225612561  0.34637403510351  0.76091512361236
 6 -4.00217748334834 -0.82509221602160  0.71013156855686
 6 -2.41554497309731 -0.64350610981098  1.12752481478148
 6 -2.41204116991699  0.83691384018402  1.34749691219122
 6 -3.78635489838984  1.37797788298830  1.17689246394639
 6 -1.74246053175317  1.24338613451345  2.85544010681068
 6 -1.56723547194719 -0.94000656405641 -0.09288796249625
 6 -0.15678379667967 -1.14989669626963  0.45160423392339
 6  0.77564864406441 -1.50982821972197 -0.72985115891589
 8  0.60921098919892 -1.06507912041204 -1.83133412361236
 8  1.89434972157216 -2.18321862046205 -0.36059098159816
 7 -6.52600434263426  2.52777314731473  0.47462121002100
 6 -5.40411097199720  3.32108075127513  0.63065936213621
 6 -5.76984119931993  4.69265895069507  0.73781865046505
 6 -7.17980869426943  4.98671476197620  0.43026961026103
 6 -7.61655335923592  3.53671247964796  0.22145697709771
 6 -4.62401732203220  5.68117554805480  1.03121078907891
 6 -7.83401496279628  6.13691061116112 -0.01931240754075
 8 -7.33908782498250  7.35285690229023  0.30416827362736
 7 -8.73221677517752  0.70007086628663 -0.22901555065507
 6 -9.39793346574658  1.89539427472747 -0.46048710101010
 6 -10.71978860916092  1.71478134923492 -0.97828360956096
 6 -10.86093045054505  0.29311021542154 -1.08116897239724
 6 -9.63876553985398 -0.34524268746875 -0.63519559625963
 6 -11.55060183548355  2.85321151425143 -1.34156880768077
 6 -12.12240536103610 -0.43327688998900 -1.53556168986899
 6 -12.12549941204120 -0.61246341154115 -3.03171596629663
 7 -6.81975845874587 -1.50842340364036  0.01211856735674
 6 -8.15837849944994 -2.23953395009501 -0.28349154715472
 6 -7.58770635573557 -3.62101942434243 -0.38191920202020
 6 -6.29237485868587 -3.69598875977598 -0.02555081568157
 6 -5.90889717841784 -2.27300611511151  0.22183836813681
 6 -8.57639616311631 -4.77190456825683 -0.59236205210521
 6 -5.04121032553255 -4.50497629572957  0.16642466816682
 8 -4.79899164786479 -5.78345888418842  0.05256576317632
 6 -3.93135686108611 -3.43964452365236  0.55401004820482
 6 -3.32597610851085 -3.77263343884388  1.97420713371337
 8 -3.88791403150315 -4.04147088188819  2.96251492129213
 8 -2.17097877277728 -3.47464376967697  1.82204214341434
 6 -1.64038256035604 -4.18982407250725  2.96306073127313
 6  3.06113800660066 -2.47101227812781 -1.30999224332433
 6  4.20386415381538 -1.39965696679668 -1.14026955925593
 6  5.06745750115011 -1.16322319371937 -1.88153435503550
 6  5.22747673147315 -1.97268040274027 -3.15979296149615
 6  6.10507433203320 -0.11475912881288 -1.57626418491849
 6  7.28023671767177 -0.56551233333333 -1.12701943924392
 6  8.28294085438544  0.28499413401340 -0.56532501300130
 6  9.71912500190019 -0.32218913921392 -0.09598790449045
 6  9.48614613091309 -1.22639145384538  1.24910927972797
 6  10.77234956495650  0.55711056525653 -0.12940810241024
 6  12.13710898139814  0.04848615581558 -0.00046173497350
 6  13.20801234383438  1.11637891259126  0.22096499489949
 6  14.70782711791179  0.39632291039104  0.53783844594459
 6  14.72375736383638 -0.30943322382238  2.01609153315331
 6  15.79627925632563  1.47559246124612  0.25601880718072
 6  17.17620709880988  0.97763298769877  0.06684981108111
 6  18.31181072847285  1.99625681688169  0.02862271547155
 6  19.70560276137614  1.31214970977098 -0.50994107780778
 6  19.60693049434943  0.85942137243724 -1.98386417761776
 6  20.68401557045705  2.31612303030303 -0.15036013191319
 1 -3.05680631893189  3.49380063106311  1.06544594629463
 1 -9.38070205270527  3.97530661576158 -0.91225485938594
 1 -10.21626411801180 -2.68248864816482 -0.15595842174217
 1 -2.42305482228223 -1.55368298609861  1.95665571387139
 1 -1.65260459905991  1.40434091029103  0.55903235663566
 1 -0.78176956065607  0.72279059345935  2.95498620972097
 1 -1.23869204310431  2.37650622702270  3.11839795759576
 1 -2.61008334083408  1.00643852915291  3.61303717281728
 1 -1.99790881118112 -2.26146741974197 -0.56349413621362
 1 -1.77856302530253 -0.16484795769577 -1.15600539133913
 1  0.56120411871187 -0.53816524982498  1.04714057925793
 1 -0.30915463526353 -2.31093742754275  1.28776900900090
 1 -3.90085461586159  5.30182801070107  0.58662362006201
 1 -4.83775405600560  6.71572424832483  1.25939284538454
 1 -4.12777380558056  5.53948290929093  2.11549932223222
 1 -8.79206222032203  6.00699580878088 -0.51790816661666
 1 -12.21538109170917 -1.61618248574857 -1.42843727092709
 1 -13.11901811681168  0.06854325412541 -1.23462109850985
 1 -13.24733255635564 -0.88556067146715 -3.16655377247725
 1 -12.14416137993800  0.34891231273127 -3.48100026952695
 1 -11.69193601800180 -1.08052136913691 -3.61614822222222
 1 -9.54554373767377 -4.72312886848685 -1.57358958695869
 1 -8.03932914751475 -5.72060207280728 -1.27997764966497
 1 -8.95719299929993 -5.12282424362436  0.70752536203620
 1 -2.95015459685969 -3.62413613851385 -0.21309961676168
 1  3.18031964736474 -3.53020029382938 -1.04038975607561
 1  2.67235152395240 -2.50330624562456 -2.44394462976298
 1  3.91770909860986 -0.67264001240124 -0.42210860926093
 1  4.52309536653665 -1.84657813031303 -3.92644275927593
 1  6.01218479687969 -1.77051572697270 -3.23537476137614
 1  4.87450127752775 -2.83613622792279 -3.39101328512851
 1  5.98686910881088  0.50314565196520 -2.41997461466147
 1  5.44063917331733  0.41897744554455 -0.90010427382738
 1  7.27211839073907 -1.45672386948695 -0.21562984138414
 1  7.77373277167717 -0.95303409370937 -1.93968344424443
 1  8.48273040444044  0.98731932673267 -1.35611839713971
 1  7.98979747784779  1.08026321452145  0.22698840724072
 1  9.84594704180418 -1.56758420212021 -1.01709886748675
 1  8.72541478577858 -1.80436925262526  1.20357871867187
 1  10.33917998739874 -1.90904478567857  1.64384627602760
 1  9.20610382198220 -0.41506272867287  2.05230653575358
 1  11.05206884468447  1.22083484338434 -1.09114628622862
 1  10.78798854545455  1.32882175777578  0.40419429972997
 1  12.25273281548155 -0.53435587508751  0.80630431373137
 1  12.30455260926093 -0.59174739533953 -0.92909590709071
 1  13.62983785378538  1.90269981498150 -0.84876378097810
 1  12.86347839263926  1.86450070137014  0.87911370077008
 1  14.68694011981198 -0.65916343234323 -0.21481967316732
 1  15.14514441434143  0.52718311381138  2.96942971597160
 1  13.87049432293229 -0.91021869376938  2.08427592569257
 1  15.53327036013601 -1.25359894299430  1.78904538223822
 1  15.63944507940794  2.27882787618762 -0.54634460916092
 1  15.87471150375038  1.83361289678968  1.07448577177718
 1  17.46226754185419  0.21582475307531  0.67435762246225
 1  17.23927145134513  0.19794796399640 -0.84381575897590
 1  17.93993900100010  2.56977352515252 -0.44684767306731
 1  18.60520051615162  2.67458136503650  0.91162783328333
 1  19.67851041224123  0.45437828402840  0.27386073687369
 1  19.27619593759376  1.80277532713271 -2.67972009720972
 1  20.49308359835983  0.32619081728173 -2.35453958735874
 1  18.55867859485949  0.13710599219922 -2.04184225892589
 1  20.47446422502250  2.54062364146415  0.71670242384238
 1  21.80123786408641  1.95070165286529  0.10553783878388
 1  20.37045369826983  3.23865135233523 -0.88685348164816
 1 -0.58519414451445 -3.80414316371637  2.38794714271427
 1 -1.81191087208721 -5.15231250495050  2.93627426402640
 1 -1.56230024332433 -3.83595207230723  3.93667782098210
 8 -11.49070744504450  3.97331213041304 -1.12768458215822
 1 -12.68227873937394  2.35418665876588 -1.70919152415241

