%nproc=4
%Mem=4GB
# td=(NStates=1) iop(3/107=0140000000,3/108=0140000000) iop(3/107=0140000000,3/108=0140000000) CAM-B3LYP/6-31G(d,p) 

TD

0 1
12 -5.68200970757076  1.20653552785279  0.15824442964296
 6 -5.12913330053005 -2.14230269356936 -0.37604447124712
 6 -3.53696248534853  1.15720600540054  2.71792716601660
 6 -6.11684047974797  4.55548881308131  0.52870307910791
 6 -8.14240000710071  1.20045089578958 -2.30692836633663
 7 -4.52338659195920 -0.37428562036204  1.16401774057406
 6 -4.36433996149615 -1.61025472707271  0.77312966256626
 6 -3.29393251775178 -2.31829513231323  1.47099146284628
 6 -2.93908707970797 -1.45951884278428  2.57940449654965
 6 -3.60364779217922 -0.00822345004500  2.11951653685369
 6 -3.49487252665267 -1.83144658605861  4.01776447584759
 6 -2.05556074927493 -2.67875528482848  0.67743304880488
 6 -0.93086472997300 -3.42217979857986  1.53484707270727
 6  0.25385048554855 -3.72537637833783  0.58021621632163
 8  0.46484654895490 -3.39471678527853 -0.57423365756576
 8  1.07741458715872 -4.64132374967497  1.19929453675368
 7 -4.93538435473547  2.65191456835684  1.49085931763176
 6 -4.10505259505951  2.41237865956596  2.43102370567057
 6 -3.74590409410941  3.60184868706871  3.15565612181218
 6 -4.58571912461246  4.58821034933493  2.59603887518752
 6 -5.26091219541954  3.92331042624262  1.44364045634563
 6 -2.86098146124612  3.72273964976498  4.24389857925793
 6 -4.80670720132013  6.02723014351435  2.93850335513551
 8 -4.15610565856586  6.53689157715772  3.91232513241324
 7 -7.00607440734073  2.62491238703870 -0.66506816311631
 6 -6.84037675247525  3.97561717891789 -0.42032372107211
 6 -7.85476066246625  4.59648637343734 -1.31753586308631
 6 -8.42493194649465  3.65019194909491 -2.07415636003600
 6 -7.91874076457646  2.40745675447545 -1.71790773727373
 6 -8.18468145904590  6.03026293569357 -1.26961647044704
 6 -9.56174053735374  3.88504890309031 -3.03154778757876
 6 -8.86187764146415  3.96179432563256 -4.52532893689369
 7 -6.32057047604760 -0.11167618531853 -1.14267935993599
 6 -7.45531506110611 -0.02176824542454 -1.99007321802180
 6 -7.66761426862686 -1.27326903050305 -2.62614513711371
 6 -6.77010655945595 -2.21682125392539 -2.06898306400640
 6 -5.98635705110511 -1.44642820792079 -1.16986311671167
 6 -8.63275873367337 -1.64436456245625 -3.73500039623962
 6 -6.27850151725173 -3.57592317621762 -2.00208376347635
 8 -6.61066546204620 -4.54567226562656 -2.66226249134914
 6 -5.17473603570357 -3.56251430403040 -0.85713803360336
 6 -5.35857333473347 -4.73386882798280  0.12719639143914
 8 -5.63572934453445 -4.35254426252625  1.28288465186519
 8 -5.15830552875288 -5.94648584498450 -0.22279542414241
 6 -5.36510407460746 -6.98841069436944  0.76587841764176
 6  2.41135210841084 -4.88875999619962  0.44036799119912
 6  3.36839137413741 -3.91124128502850  0.86414431423142
 6  4.13041243144314 -3.21281415151515  0.10166380138014
 6  3.81024536343634 -3.17733267456746 -1.49128863336334
 6  5.20411683748375 -2.21466651425142  0.53078687748775
 6  6.66773164446445 -2.78830175537554 -0.05718425102510
 6  7.70587591119112 -1.75968532403240  0.48021371187119
 6  9.14264508580858 -2.04206904050405 -0.14213199569957
 6  9.62262864456446 -3.41863250365037  0.24073061536154
 6  10.11977255635563 -1.00816105350535  0.50114262976298
 6  11.48255555795579 -0.94931453835384 -0.24665343154315
 6  12.36784447304730  0.22506713421342  0.17841468906891
 6  13.64013646944694  0.35119998989899 -0.64578934213421
 6  14.57631593059306 -0.76828623122312 -0.49764391529153
 6  14.23633957355736  1.76328249984998 -0.17397665246525
 6  15.67292148254825  2.14963299149915 -0.89845484048405
 6  16.08697128152815  3.62592734553455 -0.59664027722772
 6  17.51958720782078  3.92392023362336 -1.22238617381738
 6  17.42736532623262  3.89704459615962 -2.72333455765577
 6  17.88828823492349  5.30672593789379 -0.62318177707771
 1 -2.65693141594159  1.31158543394339  3.33195366376638
 1 -6.10028800760076  5.70268564896490  0.52963195489549
 1 -8.93613402060206  0.96617692059206 -2.95388086688669
 1 -3.67679874467447 -3.34714002940294  2.01178923972397
 1 -2.04255137903790 -1.15093275487549  2.64482575867587
 1 -2.81639141824182 -2.43503666486649  4.37554109810981
 1 -3.47685847854785 -0.96415632003200  4.35227725752575
 1 -4.42349486118612 -2.37788686958696  3.87057100760076
 1 -2.39426474017402 -3.37504702200220 -0.14353497729773
 1 -1.77724555695570 -1.70652976927693  0.12229035063506
 1 -0.48932436593659 -2.74795609120912  2.15837005570557
 1 -1.54611933353335 -4.37640477167717  1.72193399139914
 1 -1.85396551035103  3.36538606300630  4.03283919361936
 1 -2.80047103720372  4.79239644564456  4.66185244294430
 1 -3.10947394239424  3.08705970347035  5.15137014301430
 1 -5.37188025192519  6.58617281168117  2.33518884028403
 1 -10.29202833633363  3.10391104820482 -2.97806105780578
 1 -10.13639443734374  4.91878572267227 -2.93609390009001
 1 -9.60667046684669  4.05846426042604 -5.46398160046005
 1 -8.25564507390739  4.87279702510251 -4.56674662966297
 1 -8.30531038003800  3.20316967576758 -4.88144806960696
 1 -8.64266185578558 -1.00243078597860 -4.61439243754375
 1 -8.50872185518552 -2.65297870297030 -3.97885052205221
 1 -9.64357443694369 -1.52202902630263 -3.18976588328833
 1 -4.15390274767477 -3.60012483908391 -1.48180146704670
 1  2.78691982498250 -5.90218816181618  0.62246820372037
 1  2.09294003740374 -4.91731870797080 -0.63029647924792
 1  3.50896301860186 -3.83877315911591  1.94896990459046
 1  2.71284627132713 -3.24658027912791 -1.51367390839084
 1  4.05797041034103 -2.16959051835184 -1.88440091059106
 1  4.42975514951495 -3.86929065826583 -2.10118904480448
 1  5.14927496839684 -1.17935435943594  0.24045592909291
 1  5.22760128742874 -2.43153478587859  1.59766464676468
 1  6.71457898459846 -3.79743293539354  0.34775265926593
 1  6.58867902830283 -2.83748135713571 -1.02705330083008
 1  7.31964089538954 -0.75349867496750  0.32814005950595
 1  7.72676477937794 -1.79865644874487  1.52767715301530
 1  9.07829193849385 -1.81585986118612 -1.09330266836684
 1  9.13668818751875 -4.28332710411041 -0.32793658605861
 1  10.62439177997800 -3.47760196229623 -0.12889300280028
 1  9.71680074147415 -3.52091318281828  1.45752619531953
 1  9.76548569916992 -0.01378565236524  0.24266963076308
 1  10.20010010751075 -1.23517005090509  1.50860040004000
 1  12.09591473277328 -1.87273730563056 -0.09325369856986
 1  11.37423351005101 -1.09546245114511 -1.22963429702970
 1  11.76218725222522  1.08499292849285 -0.01129068426843
 1  12.65960078337834  0.07542873427343  1.26285456565657
 1  13.36686348704870  0.36405083738374 -1.78108034673467
 1  14.83303264156416 -0.73119133183318  0.56433211321132
 1  14.04425999699970 -1.66253526982698 -0.94206052755276
 1  15.54461544994500 -0.68410160836084 -1.08212510501050
 1  13.46763495769577  2.37648226732673 -0.61165295299530
 1  14.40664736503650  1.76878716791679  0.75609282318232
 1  16.49921157695769  1.42953156585659 -0.47633412411241
 1  15.66594217761776  1.88988290109011 -2.09181056075608
 1  15.42826423102310  4.51569694769477 -1.08214021212121
 1  16.16239901000100  3.63893053445345  0.60001990239024
 1  18.24879856125613  3.06302779397940 -0.97077615721572
 1  16.66895761616161  4.63623015191519 -3.27564992479248
 1  18.44125004850485  4.14316382968297 -3.12396700180018
 1  17.05665586578658  2.93542461246125 -3.04506254085409
 1  18.35092113931393  5.47736895439544  0.37895956015602
 1  18.80435795809581  5.63749790199020 -1.17301421582158
 1  17.07350890179018  5.99966947004700 -0.77968202950295
 1 -5.34506980838084 -7.93806323942394  0.00369683198320
 1 -6.34962939323932 -6.86490357695770  1.15474898239824
 1 -4.27942611121112 -7.15940751635164  1.58012246884688
 8 -7.73032062366237  6.78792529332933 -0.45421320532053
 1 -8.81398969606961  6.49319496439644 -2.29097478027803

