%nproc=4
%Mem=2GB
# td=(NStates=1) iop(3/107=0140000000,3/108=0140000000) iop(3/107=0140000000,3/108=0140000000) CAM-B3LYP/6-31G(d,p) 

TD

0 1
12 -6.53784635673567  0.73903304740474  0.09561718121812
 6 -4.42962006850685 -1.92785120692069  0.38988926592659
 6 -4.21863367876788  2.79493112621262  0.91188407000700
 6 -9.01466417111711  3.40221424552455 -0.36738624032403
 6 -9.33367146474647 -1.65970900050005 -0.54328438713871
 7 -4.64395946784678  0.44499389708971  0.66267529962996
 6 -4.01798906450645 -0.84311401820182  0.66986754215421
 6 -2.50837425602560 -0.61534329352935  0.96816887918792
 6 -2.46196616241624  1.03411356015602  1.27233939643964
 6 -3.90736699959996  1.42075216041604  0.96621139583958
 6 -1.91465775147515  1.13334513041304  2.73334789758976
 6 -1.60853960236024 -1.07781034443444 -0.08318699239924
 6 -0.16767488578858 -1.47563927052705  0.30640971447145
 6  0.65798687788779 -1.60114735163516 -0.81593976777678
 8  0.52229229732973 -1.34432704520452 -2.03511450165017
 8  1.82952323892389 -2.21364166276628 -0.47459238173817
 7 -6.52339408160816  2.64233460346035  0.24693844174417
 6 -5.42229279017902  3.32854149734973  0.53731002720272
 6 -5.67176139133913  4.81765144994499  0.64862973157316
 6 -6.99699041244124  4.95327141764176  0.37274385768577
 6 -7.55104680858086  3.68755756415642 -0.00060522912291
 6 -4.76410133043304  5.76956438693869  1.03684135213521
 6 -7.72354391569157  6.15466238633863  0.25877540124012
 8 -7.30335425162516  7.18277989458946  0.50020787758776
 7 -8.61615516901690  0.79270012921292 -0.43641629072907
 6 -9.29144281668167  1.92333706900690 -0.38464951725173
 6 -10.77897452775277  1.58546841794179 -0.77313309450945
 6 -10.76085044254425  0.38324922932293 -0.86085694119412
 6 -9.65001666496650 -0.40985914911491 -0.63591566826683
 6 -11.80502727802780  2.72348854195420 -1.00190484128413
 6 -12.17218033853385 -0.37487104940494 -1.03279141284128
 6 -12.22007886998700 -0.93414557975798 -2.51903469816982
 7 -6.87932441534153 -1.38917147844784  0.00107746324633
 6 -8.04101676327633 -2.25535553225323 -0.27328052605261
 6 -7.50121770687069 -3.52031935433543 -0.28275928602860
 6 -6.18120374157416 -3.68409757065707 -0.12429068966897
 6 -5.82521881058106 -2.30805962046205  0.14094027832783
 6 -8.41933045654566 -4.69420679847985 -0.38715153105311
 6 -4.95013121762176 -4.39893569166917  0.10308833453345
 8 -4.77072882158216 -5.56383692199220 -0.12824231763176
 6 -3.67339106450645 -3.44154471367137  0.36820146734673
 6 -3.19478298919892 -3.78518469396940  1.68055776877688
 8 -3.60654589468947 -4.52049878467847  2.73581225102510
 8 -1.84923659855986 -3.16904320962096  1.61885182438244
 6 -1.17852637473747 -3.60856594669467  2.68784320952095
 6  2.99843173597360 -2.47855303220322 -1.44850609470947
 6  4.02792656005601 -1.33280028112811 -1.12269780208021
 6  5.01662241764176 -1.30384725612561 -2.05939214081408
 6  5.27628161196120 -2.02779591429143 -3.40921790399040
 6  6.11941576617662 -0.28035568846885 -1.77232379087909
 6  7.28570726472647 -1.09251503360336 -1.06654339163916
 6  8.42921548184818  0.02778841344134 -0.75262374287429
 6  9.60225331473147 -0.53093001330133  0.04682637693769
 6  9.42450996729673 -1.01052986768677  1.36052042084208
 6  10.74120645064506  0.53087794199420 -0.00509567116712
 6  12.20115538603860 -0.06982567536754  0.35399371057106
 6  13.27256879947995  0.98792606730673  0.52985588398840
 6  14.53287962316232  0.32922620072007  0.69069373147315
 6  14.80365535363536 -0.00449272977298  2.02667259125913
 6  15.59356898529853  1.43200810281028  0.18001120642064
 6  17.06403588168817  0.94058928332833  0.25054818091809
 6  17.93128267566757  1.99524671587159 -0.29068921572157
 6  19.40073227432743  1.39139763456346 -0.28982906660666
 6  19.79006880818082  0.70965639593959 -1.69715550675068
 6  20.52615978487849  2.43819523752375  0.01830673477348
 1 -3.38155879417942  3.56841809280928  0.94752415411541
 1 -9.96649063156316  4.20111919701970 -0.37185081898190
 1 -10.30105259685969 -2.22892329162916 -0.64914774067407
 1 -2.20205272207221 -1.45133275107511  2.06504655295529
 1 -1.80862020062006  1.59502997919792  0.64173062646265
 1 -1.04686607030703  0.56963527792779  2.88886959805981
 1 -1.60917909180918  2.44406298269827  3.04833095089509
 1 -2.70886321882188  0.90504839013901  3.26516238533853
 1 -1.89669869016902 -1.76892816581658 -0.82119990679068
 1 -1.62371754075408 -0.08343981688169 -1.02873266406641
 1  0.27790578887889 -0.71213264656466  1.04244010921092
 1 -0.32608632843284 -2.31329766356636  0.92819305140514
 1 -3.87223175357536  5.69787761566157  0.29759471717172
 1 -5.25207548814882  6.66422909880988  1.10430733683368
 1 -4.35997702590259  5.61920088108811  2.32322009430943
 1 -8.65842885698570  6.02350745994599  0.35214883908391
 1 -12.04583413701370 -1.58637950545054 -0.43865829302930
 1 -13.17805402040204  0.09976637643764 -0.82961059745975
 1 -13.20769859295930 -1.49100121552155 -2.84413153025303
 1 -12.18516548034804  0.08842626412641 -3.46922909240924
 1 -11.47718454285429 -1.60251356835684 -2.94191079847985
 1 -9.04518370167017 -4.87803435903590 -1.32526475447545
 1 -7.70414562916292 -5.50411042364236 -0.33872352425242
 1 -9.00056733673367 -4.84435639683968  0.83089769926993
 1 -2.91299088048805 -3.39073279817982 -0.28383669046905
 1  3.36002761816182 -3.37586486028603 -0.79341505860586
 1  2.67904219301930 -2.43503941894189 -2.29147938323832
 1  3.70798812651265 -0.70713346174618 -0.24768116651665
 1  4.48488154515451 -1.74396786928693 -4.11729184418442
 1  5.87720129852985 -1.64329300470047 -3.83184440834083
 1  5.69963379077908 -3.00831344564457 -3.37059124292429
 1  6.41356177807781  0.34652999039904 -2.60064268146815
 1  5.57700280968097  0.14601014881488 -1.11220548394840
 1  6.92388356725673 -1.76366456355635 -0.36035431383138
 1  8.02929832823282 -1.86996578687869 -1.89257873377338
 1  8.52458458985899  0.62647324212421 -1.84839762506251
 1  7.86718521662166  1.06350153835384  0.08795450385038
 1  9.64536698379838 -1.51287873157316 -0.41402856045605
 1  8.36249849414942 -1.77137595329533  1.28534689548955
 1  10.08005407480748 -1.44536841804180  1.80558244964496
 1  9.60591380298030 -0.31883310571057  2.10451175627563
 1  10.84213785158516  0.97203996389639 -1.31308848044804
 1  10.62176192279228  1.71980085568557  0.84474835513551
 1  11.90272781498150 -0.69916235573557  1.29700338363836
 1  12.34716687068707 -0.72611083168317 -0.45261825932593
 1  13.48798366836684  1.64001354635463 -0.55762466706671
 1  13.30766281108111  1.75205945724572  1.12520831023102
 1  14.53347477327733 -0.53776129212921  0.11795360416042
 1  14.65593549344934  0.84637503300330  2.58789156215622
 1  14.13722099559956 -0.90855852775277  2.19719721782178
 1  15.80117715081508 -0.42133571667167  2.08323480118012
 1  15.19672080698070  1.62875286868687 -0.51109108380838
 1  15.58113214581458  2.26986652215222  0.86425474867487
 1  17.37234854995500  0.47631080168017  1.18073826052605
 1  17.04161168536854 -0.19888171897190 -0.39669104650465
 1  17.36807181428143  2.42583913171317 -1.17987097539754
 1  17.87355735183518  2.71550545744575  0.64531120162016
 1  19.29628218941894  0.46210905710571  0.34574792559256
 1  19.79373769176918  1.51194624422442 -2.76984911011101
 1  20.90410470047005  0.13285148334833 -1.44406854025402
 1  18.85733846084609  0.04489677127713 -2.00676875157516
 1  20.55961273987399  2.95255483458346  1.04659541314131
 1  21.64053179347935  2.15027160986099 -0.20140285528553
 1  20.59150580348035  3.47564505170517 -0.50928572487249
 1 -0.11049667476748 -4.07479022842284  2.55057340534053
 1 -1.63668334933493 -4.61416869056906  3.18460909750975
 1 -1.22921693499350 -2.66667514461446  3.52507666086609
 8 -11.93614198849885  3.82604740394039 -0.66266808050805
 1 -12.98398891039104  2.28300954105411 -0.89478008300830

