%nproc=4
%Mem=4GB
# td=(NStates=1) iop(3/107=0140000000,3/108=0140000000) iop(3/107=0140000000,3/108=0140000000) CAM-B3LYP/6-31G(d,p) 

TD

0 1
12 -5.53121462806281  1.33315819011901  0.05514411961196
 6 -4.97132751995199 -2.13312177547755 -0.36291315811581
 6 -3.53887267636764  1.17043732853285  2.87722309560956
 6 -6.28119691539154  4.56465973017302  0.68982919171917
 6 -8.00205597269727  1.21455230593059 -2.31144881838184
 7 -4.42115636893689 -0.29745793759376  1.05391673047305
 6 -4.22041556905691 -1.64045774737474  0.70632298189819
 6 -3.19323244774477 -2.25204850765077  1.59265362906291
 6 -3.02142531353135 -1.26519941084108  2.70924748084808
 6 -3.71923935133513  0.05385275757576  2.16018060326033
 6 -3.57614065346535 -1.84136757815782  4.06985968536854
 6 -1.96406159935994 -2.50222763206321  0.72667797329733
 6 -0.94852649614962 -3.38667624822482  1.49624321232123
 6  0.26942204270427 -3.76591043174317  0.74527272197220
 8  0.57985805010501 -3.45488280188019 -0.38166440064006
 8  1.08464531023102 -4.65079469676968  1.34875948324832
 7 -4.91856267256726  2.59944932183218  1.53219345104510
 6 -4.07787987778778  2.35142256395640  2.53422402570257
 6 -3.92411191489149  3.57819632183218  3.25871642784278
 6 -4.51905245794579  4.58935046334633  2.50950022132213
 6 -5.22339844404440  3.96888498369837  1.48174426672667
 6 -3.03272863596360  3.82684005980598  4.40792498189819
 6 -4.69947647824782  6.03987140764076  2.82852235703570
 8 -4.13648369636964  6.55237312531253  3.80415431533153
 7 -6.90265406530653  2.68061795759576 -0.70453210951095
 6 -7.07451016581658  3.98630824802480 -0.34758644734473
 6 -7.95538072447245  4.64355107990799 -1.28240234973497
 6 -8.51672112541254  3.61196812671267 -2.10084902930293
 6 -7.74118300880088  2.42684869366937 -1.73147909440944
 6 -8.36653964486449  6.09536944634463 -1.15394490329033
 6 -9.58517288058806  3.71137153535354 -3.12285691849185
 6 -8.91152260596060  3.92855100130013 -4.56503290729073
 7 -6.23386180518052 -0.10303532123212 -1.09562465446545
 6 -7.18868839843984  0.09816374777478 -2.14598880958096
 6 -7.52276978417842 -1.28485018861886 -2.74504702730273
 6 -6.52312186098610 -2.06798637043704 -2.16346251195120
 6 -5.85084349974997 -1.32181574667467 -1.09515564596460
 6 -8.58959441724172 -1.73740386638664 -3.72325922212221
 6 -6.17208087518752 -3.50204578847885 -2.00578413351335
 8 -6.63646804230423 -4.47101479987999 -2.65929219431943
 6 -5.02929149124912 -3.58806685928593 -0.94687700750075
 6 -5.27062453985399 -4.67442288338834  0.11852552435244
 8 -5.65083085468547 -4.41831083918392  1.29670603400340
 8 -4.98867856605661 -5.92993418981898 -0.33061620622062
 6 -5.24774233843384 -6.96943879717972  0.45499732953295
 6  2.25120609380938 -5.13229434963496  0.68736269066907
 6  3.42370690569057 -4.14751491239124  0.96390429022902
 6  4.12122151235124 -3.35647851795180  0.05861949694969
 6  3.82719705860586 -3.32347728902890 -1.46240574507451
 6  5.20564699049905 -2.51380642824282  0.59183298209821
 6  6.50656552785279 -2.78441136633663 -0.17618615121512
 6  7.62742806640664 -1.82542189768977  0.41504719521952
 6  9.08179900120012 -2.13790862446245 -0.13036081858186
 6  9.50619700140014 -3.62967360776078  0.07694423672367
 6  10.06333691279128 -1.05444568196820  0.46495901140114
 6  11.44663196559656 -0.90215982288229 -0.33263202940294
 6  12.24880256885688  0.31906653415342  0.11499834743474
 6  13.68891134693469  0.47172204210421 -0.55518028122812
 6  14.50346864586459 -0.80458986158616 -0.37862201310131
 6  14.28528446804680  1.81263743534353 -0.16482573737374
 6  15.58814300470047  2.26207423562356 -0.88187318231823
 6  16.16258884328433  3.52483723652365 -0.50643125632563
 6  17.33559880898090  3.98409625122512 -1.36640057525753
 6  17.04536712641264  3.97055194689469 -2.85329755395540
 6  17.79100850695069  5.20515578087809 -0.72768222712271
 1 -2.98445416821682  1.02555683108311  3.91797226562656
 1 -6.38252623142314  5.72735811621162  0.73486247794779
 1 -8.73455386258626  1.18872917581758 -3.06567204600460
 1 -3.37597866266627 -3.21275659105911  2.20134819561956
 1 -2.05759288318832 -1.01182884448445  2.79447072317232
 1 -2.90766054515452 -2.70255341654165  4.38282182618262
 1 -3.73392418511851 -1.16306621102110  4.69077110691069
 1 -4.53199571127113 -2.29922900380038  3.82227617811781
 1 -2.35201051475148 -2.97532705000500 -0.19159978377838
 1 -1.54105193759376 -1.41858097439744  0.44071219281928
 1 -0.78861429492949 -3.22086338193819  2.62173639233923
 1 -1.52252697429743 -4.29498662986299  1.63587538553855
 1 -2.01960207400740  3.76588611301130  3.98068397809781
 1 -3.28140913101310  4.92616982298230  4.77455371307131
 1 -3.15781877687769  3.01109210671067  5.18597360336034
 1 -5.28313137703770  6.71337553195320  2.17508282968297
 1 -10.18064719821982  2.81792244934493 -3.44170742244224
 1 -10.47795859375938  4.56014985908591 -2.99385967666767
 1 -9.61693149294929  4.19019743374337 -5.45930113241324
 1 -8.22974248364837  4.80408015341534 -4.63243319831983
 1 -8.28015786478648  3.07900725952595 -4.91783170797080
 1 -8.43266085568557 -1.17132767566757 -4.69814081238124
 1 -8.39532051505151 -2.88139154425443 -3.84452708970897
 1 -9.49414949444945 -1.35564238763876 -3.24364127082708
 1 -4.23780113751375 -3.78622344894489 -1.73855714261426
 1  2.36959809280928 -6.05360330333033  1.22629858675868
 1  2.16465720912091 -5.24103107920792 -0.41516496609661
 1  3.76679880218022 -3.88522780458046  2.09739474707471
 1  2.75543052975298 -3.14809043014301 -1.43177571857186
 1  4.61454606790679 -2.37092065136514 -2.20475294579458
 1  4.15560773477348 -4.33665739493949 -1.89313823972397
 1  5.12883292419242 -1.28540496449645  0.44545642914291
 1  5.47512603990399 -2.65711734413441  1.55306018631863
 1  6.75761328802880 -3.97988118021802 -0.27402951895190
 1  6.00937109750975 -2.62341995099510 -1.24416501200120
 1  7.39171810311031 -0.76223954905491  0.18106535203520
 1  7.80744284718472 -2.13016960006001  1.44166855215522
 1  8.96261037033703 -1.84150242544254 -1.10266360446045
 1  8.96164068276828 -4.34362313371337 -0.11514530693069
 1  10.56085542634263 -3.59781398349835 -0.65513562706271
 1  9.76718577997800 -3.82212330383038  1.04173461616162
 1  9.64766391699170 -0.00064433823382  0.31268663246325
 1  10.09182928042804 -1.00957749164917  1.51708124812481
 1  11.97486262756276 -2.06226625852585 -0.09698407160716
 1  11.17756384308431 -0.98502140704070 -1.31774310791079
 1  11.50827186068607  1.17588201740174  0.07454789958996
 1  12.54184900820082  0.26686787818782  1.15525380558056
 1  13.57868466916692  0.41510594289429 -1.76953919261926
 1  14.77394673297330 -1.19960817351735  0.68092377237724
 1  13.87749332033203 -1.58423744004400 -0.79490581208121
 1  15.47526851525152 -0.68290148834884 -0.82439933243324
 1  13.47825601980198  2.63503812291229 -0.23476526422642
 1  14.63091979227923  1.66282657185719  0.77540475437544
 1  16.25695735153515  1.47683629632963 -0.75880237093709
 1  15.52598818221822  2.00290420322032 -1.87212859255926
 1  15.36478788338834  4.31808718671867 -0.41982398049805
 1  16.50965373547355  3.47088372977298  0.58185808620862
 1  18.10080376177618  3.16662815401540 -1.18864794439444
 1  16.20380110051005  4.74393092199220 -3.14824718451845
 1  17.95164108760876  4.41660117341734 -3.22787739283928
 1  16.87379757995800  3.03502457245725 -3.29299733433343
 1  17.92985903310331  5.08090930843084  0.33032469666967
 1  18.60884840714072  5.56275042724272 -1.33937085148515
 1  16.86121767266727  5.95869537263726 -0.77987204850485
 1 -5.04669997139714 -7.95085451855186 -0.06934047174717
 1 -6.29296372667267 -6.91615870247025  0.67450095759576
 1 -4.53617178577858 -7.11357293289329  1.31536599319932
 8 -7.84708229982998  6.95533203400340 -0.39751753575358
 1 -9.12988128522852  6.39579522442244 -1.80711639443944

