%nproc=4
%Mem=2GB
# td=(NStates=1) iop(3/107=0140000000,3/108=0140000000) iop(3/107=0140000000,3/108=0140000000) CAM-B3LYP/6-31G(d,p) 

TD

0 1
12 -6.93138571067107  0.50713985808581  0.19700732023202
 6 -4.55932303880388 -2.02382080388039  0.56594687168717
 6 -4.35642745814581  2.87372900600060  1.11706458805881
 6 -9.07441014571457  3.08184220832083 -0.33921342304230
 6 -9.18617671527153 -1.75631866146615 -0.90027008570857
 7 -4.76877194909491  0.37967736543654  0.80219925202520
 6 -3.96728399399940 -0.84187389418942  0.74073462886289
 6 -2.47793121172117 -0.52070382958296  1.05392745504550
 6 -2.47317728352835  1.15359550835084  1.38201036353635
 6 -4.00152641554155  1.55308539373937  1.08406318101810
 6 -2.21868815451545  1.42427422332233  2.82522708550855
 6 -1.76481522992299 -0.90969353275328 -0.23270194389439
 6 -0.35368348664866 -1.44742644924492  0.37996707020702
 6  0.62607368656866 -1.28709594649465 -0.83825199899990
 8  0.38260832893289 -0.96698931143114 -2.04386537673767
 8  1.89498978557856 -1.89487978657866 -0.32122704520452
 7 -6.80896263846385  2.49425979597960  0.43648739663966
 6 -5.66235679657966  3.33175181838184  0.91714801100110
 6 -6.04639885508551  4.81368105290529  0.76395126372637
 6 -7.21963267666767  4.93034912541254  0.27985456875688
 6 -7.84924662856286  3.47417622602260  0.11483631503150
 6 -5.07134205450545  5.95333276377638  1.30992866086609
 6 -8.01486304760476  6.17190411051105  0.15162468616862
 8 -7.47931184738474  7.32272388898890  0.16613447024702
 7 -8.70175372887289  0.70889174837484 -0.47443009210921
 6 -9.50883455585559  1.73426816211621 -0.44545559785979
 6 -10.94807143744374  1.28038790989099 -0.67168294949495
 6 -10.95382974047405 -0.02547164276428 -1.03173402890289
 6 -9.57543920722072 -0.45653381658166 -0.73134521122112
 6 -12.06986376167617  2.22050824392439 -0.86426107690769
 6 -12.17855097559756 -0.77082064436444 -1.31659979367937
 6 -12.35023188528853 -0.72671483668367 -2.94058685338534
 7 -6.85055153805381 -1.34756731803180 -0.07171981648165
 6 -7.91174383598360 -2.26781677837784 -0.49330252825283
 6 -7.46863444854486 -3.69545686808681 -0.56620763086309
 6 -6.18380400160016 -3.55428458935894 -0.27916617721772
 6 -5.85333162186219 -2.23185199969997  0.05474165846585
 6 -8.20922944644465 -4.76608398619862 -0.96621943784378
 6 -5.11691789628963 -4.42001779987999  0.20736876257626
 8 -4.76832858155816 -5.70254079237924  0.28575908250825
 6 -3.95365909130913 -3.48473903310331  0.60244489168917
 6 -3.38945245614561 -3.71549772527253  1.87720743374337
 8 -4.05136037613761 -4.08508524332433  2.92505117491749
 8 -1.88170984588459 -3.60509681498150  1.89874981418142
 6 -1.25733425552555 -3.84190928102810  3.01982640784078
 6  3.00229212201220 -2.16956213311331 -1.38586983108311
 6  4.14258802620262 -1.30560756185619 -0.99733526582658
 6  5.07901865726573 -0.82517938933893 -1.83946014761476
 6  5.38672265606561 -1.58412154685469 -3.22052903510351
 6  6.01801562616262  0.14753710081008 -1.29246580508051
 6  7.36744543854385 -0.36296207830783 -0.80613735103510
 6  8.46951951225122  0.64131976657666 -0.46671515201520
 6  9.72117520692069 -0.06619353965397 -0.14677298299830
 6  9.65084260056006 -0.92028084278428  1.20810517931793
 6  10.94457678767877  1.01225607980798  0.11576641504150
 6  12.40085535603560  0.16096740394039  0.07379569076908
 6  13.46283782638264  1.25506278097810  0.14197709610961
 6  15.02887922312231  0.42462574067407  0.33148781088109
 6  14.87691267936794 -0.23618589908991  1.61628155215522
 6  16.06490611901190  1.39646454845485 -0.15446224092409
 6  17.44647412551255  0.56799202360236 -0.26655352925292
 6  18.70914046144615  1.41510870207021 -0.25284543134313
 6  20.17334953605361  0.72700119491949 -0.30025010871087
 6  20.40786058735874 -0.07255182488249 -1.46114190539054
 6  21.38504567346735  1.70558197619762  0.05825072917292
 1 -3.84073471177118  3.22909416041604  1.87196659835984
 1 -10.06153013551355  3.65333441854185 -0.18809244314432
 1 -10.01187367896789 -2.47138753805381 -1.12958578447845
 1 -2.33076559335934 -1.21844946274627  2.27063711201120
 1 -1.73423276187619  1.58109858605861  0.68351480488049
 1 -1.48750013371337  0.98854716911691  3.10428113921392
 1 -2.30014818871887  2.78698727512751  3.07057317511751
 1 -2.95822815531553  0.95019290459046  3.55090095919592
 1 -2.28713773407341 -1.54100537353735 -1.21512929972997
 1 -1.13013818281828  0.03374190129013 -0.97314710551055
 1  0.16983498179818 -0.71417285058506  1.05559142434243
 1 -0.33819753955396 -2.48373470727073  0.85035526762676
 1 -4.10170470087009  6.39060688858886  0.49232419011901
 1 -5.83992427302730  6.83586626252625  1.55536244234423
 1 -4.37036806500650  5.45064402540254  2.04714248654865
 1 -8.83194620872087  6.09068417761776 -0.07343371917192
 1 -12.27924747834783 -1.61503237073707 -0.87486191339134
 1 -13.11461767676768 -0.27944154435444 -0.66316395279528
 1 -13.24613243634363 -1.22792490789079 -3.28118523562356
 1 -12.47755471927193  0.46787420892089 -3.33754592409241
 1 -11.49570639503950 -1.35293861086109 -3.48536514391439
 1 -9.05342452575258 -4.68830538613861 -1.92059428742874
 1 -7.05896111071107 -5.65251526412641 -1.25696534843484
 1 -8.82899017901790 -5.18311027222722  0.06684129362936
 1 -3.10824040544054 -3.71520524542454 -0.18810711751175
 1  3.18543015841584 -3.17854512831283 -1.06766248334833
 1  2.79144343314331 -2.06001191619162 -2.43882411771177
 1  3.74520184788479 -0.91650439883988  0.09535313691369
 1  4.46000905790579 -1.35464893739374 -3.79892000700070
 1  6.12402598099810 -0.90192886828683 -4.12617384128413
 1  5.60535436283628 -3.02310492479248 -3.08251243504350
 1  6.11414183608361  0.86895223262326 -2.01465408260826
 1  5.61949705910591  0.99884543234323 -0.62392665606561
 1  7.20072125102510 -1.16509470657066  0.12385410701070
 1  7.84232963136314 -1.12242103240324 -1.49283875977598
 1  8.78299043044304  1.28065866066607 -1.27161994729473
 1  8.17918641674168  1.45360054825483  0.43730943934393
 1  9.75681812891289 -0.98226567026703 -1.00689784738474
 1  8.83500574487449 -1.56531534723472  0.93703206400640
 1  10.76981305070507 -1.35680956215622  1.41062295369537
 1  9.19321253285329 -0.44763598599860  2.10094139923992
 1  10.86478011581158  2.06734949484949 -0.84647181878188
 1  10.74675442204220  1.50742961856186  0.91358523882388
 1  12.28195573777378 -0.45754819431943  1.01287497079708
 1  12.23498565256526 -0.40282850345035 -0.68363136063606
 1  13.24794966496650  1.76457600260026 -0.79502840744074
 1  13.12020406520652  1.94112836413641  1.10469625902590
 1  14.91384281008101 -0.41188870487049 -0.45246343754375
 1  14.63414331423142  0.56141653715371  2.25830860386039
 1  14.18093536703670 -0.96351402330233  1.37508500660066
 1  15.62880991409141 -0.80180376347635  1.91263774147415
 1  16.08351948684868  2.06024601800180 -1.33067304200420
 1  16.09627365996600  2.29666920242024  0.45976429962996
 1  17.68088940404040 -0.07027385678568  0.57492767946795
 1  17.12711023522352 -0.19665149594960 -0.82631400880088
 1  18.65486049314931  1.88662521032103 -1.30496348464846
 1  18.71164116021602  1.99090299719972  0.25011168166817
 1  20.31582414361436  0.03898674487449  0.46420977177718
 1  20.62724104210421  0.91062611221122 -2.38917104230423
 1  21.07053134313431 -0.81554335613561 -1.52453658705871
 1  19.43964669166917 -0.68036575497550 -1.83923199789979
 1  21.35084186278628  1.69096867596760  1.19729048264827
 1  22.21665940624062  1.10750733343334 -0.10355307030703
 1  21.10081673457346  2.82131961916192 -0.43051784808481
 1 -0.23571919701970 -4.16870962036204  2.40659900790079
 1 -1.92423210421042 -4.37869514321432  3.54619525612561
 1 -1.11696570987099 -2.75697417451745  3.37927208040804
 8 -11.88945732003200  3.55278007720772 -0.93651546524652
 1 -13.29264977647765  1.72806404650465 -0.73564416941694

