%nproc=4
%Mem=2GB
# td=(NStates=1) iop(3/107=0140000000,3/108=0140000000) iop(3/107=0140000000,3/108=0140000000) CAM-B3LYP/6-31G(d,p) 

TD

0 1
12 -6.79592216431643  0.63783292739274  0.08274589408941
 6 -4.49020612711271 -1.98142656445645  0.49805008200820
 6 -4.17561937733773  2.88477011011101  0.76965984758476
 6 -9.01142384708471  3.16915093919392 -0.03326282798280
 6 -9.33243134073407 -1.64977800740074 -0.57984804350435
 7 -4.70543561546155  0.39900929862986  0.52415144724472
 6 -3.90765803140314 -0.80907061386139  0.58774933033303
 6 -2.43960737933793 -0.53232499169917  0.91856391869187
 6 -2.43553351915191  1.04459460826083  1.35137730023002
 6 -3.87326358925893  1.49000908610861  0.88155292999300
 6 -1.97061334703470  1.21484328022802  2.79766432923292
 6 -1.57371612001200 -0.94973753715372 -0.18026670037004
 6 -0.07019513781378 -1.30170187678768  0.27152622612261
 6  0.75792687188719 -1.47256449334933 -1.07345551935194
 8  0.84837490559056 -0.91338395089509 -2.06885787598760
 8  1.93399368596860 -2.28526882548255 -0.58486340884088
 7 -6.65909765196520  2.64303467346735  0.33671741964196
 6 -5.66351691259126  3.30102874607461  0.66920321652165
 6 -5.90883509870987  4.91739142394239  0.85148001660166
 6 -7.17214792819282  4.98486457695770  0.47509409270927
 6 -7.72552425632563  3.58783759215922  0.23770860226023
 6 -4.98308322862286  5.97023445394539  1.17037470547055
 6 -8.11417297859786  6.12020894099410  0.51458098179818
 8 -7.76104002020202  7.20092170877088  0.58776663346335
 7 -8.68815236873687  0.75399625882588 -0.37168981808181
 6 -9.48214188658866  1.97109184448445 -0.42726377867787
 6 -10.79115574587459  1.51016088718872 -0.74357013821382
 6 -10.94569892739274  0.09959086348635 -0.85417627312731
 6 -9.60442210551055 -0.34810297349735 -0.70656273297330
 6 -12.02427920322032  2.54822101520152 -0.77149179998000
 6 -12.13437655815582 -0.66206976927693 -1.18474660836084
 6 -12.09513637573757 -1.10761292649265 -2.65288808350835
 7 -6.89797628052805 -1.37977053835384 -0.14476712121212
 6 -8.10727338893889 -2.30872086878688 -0.43390658865887
 6 -7.53057064216422 -3.61213853625363 -0.45767677777778
 6 -6.33897951915191 -3.70086924782478 -0.00234849544954
 6 -5.84940122882288 -2.14095290979098  0.08504468876888
 6 -8.34223274677468 -4.95149252705271 -0.71685450135014
 6 -4.95874207870787 -4.37111290939094  0.11599962566257
 8 -4.70980272897290 -5.56977751605161  0.15941644824482
 6 -3.80626435183518 -3.44719527872787  0.43422807000700
 6 -3.26037954885489 -3.70555673117312  1.76952666566657
 8 -4.10528576867687 -4.04875160996100  2.73386205600560
 8 -1.88440011491149 -3.56302260756076  1.72988292749275
 6 -1.04420294239424 -3.86606169626963  2.92006643184318
 6  3.06864875767577 -2.44665984288429 -1.46559780388039
 6  4.03038680608061 -1.31078807990799 -1.12466799909991
 6  4.96880763616362 -1.01143801520152 -1.89084528612861
 6  5.20849483328333 -1.89770290499050 -3.18830581278128
 6  6.00545437003700  0.11820416751675 -1.56739329782978
 6  7.26974566856686 -0.63254903700370 -1.06159289658966
 6  8.43109566986699  0.56652228682868 -0.95069354985499
 6  9.68683177257726 -0.26887380768077 -0.21629993569357
 6  9.22604012031203 -0.88490730543054  1.12114648344834
 6  11.02714504450445  0.51786664086409 -0.09945510711071
 6  12.18911418191819 -0.04841353415342  0.07763607480748
 6  13.31981352395239  1.02806008070807  0.10332323072307
 6  14.72540887608761  0.42003528162816  0.56118078017802
 6  14.78260324842484  0.03190090959096  2.15670559455946
 6  15.72705233363336  1.58124302630263  0.23194639993999
 6  17.33206268436843  0.81536676107611  0.21512463856386
 6  18.59066861426143  1.77919511071107 -0.20032017881788
 6  19.94826702780278  0.92316081088109 -0.19915999969997
 6  20.00486028732873  0.01145657595760 -1.41398718991899
 6  21.07802497139714  1.98733015101510 -0.16176127202720
 1 -3.40111074937494  3.60100135113511  1.10221962366237
 1 -9.82060604310431  4.06178526362636 -0.23092672657266
 1 -10.15246773837384 -2.69887028632863 -0.91179400530053
 1 -2.52851536833683 -0.99886750455046  1.91400144844485
 1 -1.49359869846985  1.22589306550655  0.49248570197020
 1 -0.88425980968097  1.08172648704870  3.08220893199320
 1 -1.83249142304230  2.37442601900190  2.96008212601260
 1 -2.62922525502550  0.46357424272427  3.33570944004400
 1 -1.90806982728273 -1.70333160616062 -0.70992877967797
 1 -1.48609377837784 -0.20251172407241 -0.77144693549355
 1  0.54000199849985 -0.35705713901390  0.71365723092309
 1 -0.14432815261526 -2.07866420022002  0.94692492459246
 1 -3.81391592199220  6.02316014391439  0.56826178387839
 1 -5.37318759935994  7.01206388228823  0.96728363446345
 1 -4.38495952415242  5.86159512051205  2.20289806210621
 1 -9.21935494959496  5.99284439363936  0.60952457665767
 1 -12.19067862146215 -1.68336920442044 -0.50805523272327
 1 -13.01857807280728  0.07092349214922 -0.83131076747675
 1 -13.09366718981898 -1.55615773117312 -2.97806492359236
 1 -12.00636760056006 -0.34029660816082 -3.30126229572957
 1 -11.56908373277328 -2.08783210021002 -2.91729833723372
 1 -9.08230741404140 -5.05242179777978 -1.56758898689869
 1 -8.12877809240924 -5.96019603220322 -0.66841649354935
 1 -8.71178845884588 -4.94440640184018  0.31150576007601
 1 -3.09245882728273 -3.65048877377738 -0.28247655445545
 1  3.51408302370237 -3.53545081888189 -1.06623234033403
 1  2.55337962676268 -2.57897381238124 -2.60897113241324
 1  3.73540086778678 -0.82092484088409 -0.34474087248725
 1  4.44324738173817 -1.57761123362336 -3.96796691169117
 1  5.74314789318932 -1.44360303570357 -3.58109933383338
 1  5.36736056345635 -3.09788240254025 -3.40959514331433
 1  6.31788221012101  0.86799213661366 -2.43544616181618
 1  5.81420653005300  0.91118666646665 -0.97897216061606
 1  7.41653283218322 -1.25339353645365  0.12843456505651
 1  7.51932733113311 -1.91050984128413 -1.80214969086909
 1  8.87164929632963  1.20933152795280 -1.83360614591459
 1  7.99089758785879  1.22681786998700 -0.15673996559656
 1  10.06123857095709 -0.79982742644264 -1.06258341594159
 1  8.19830207450745 -1.47172598829883  1.34091245204520
 1  9.85275134453445 -1.68713259445945  1.64605649704970
 1  9.24139735133513 -0.13766498889889  1.98578988408841
 1  10.93168680648065  1.00782354225423 -0.91272844444444
 1  11.13967371397140  0.99712858845885  0.47905178547855
 1  12.18005554775478 -0.34597703720372  1.10242392569257
 1  12.20680283428343 -0.96898511911191 -0.53102610011001
 1  13.48012288228823  1.38608815381538 -1.03153205780578
 1  13.40023206800680  1.50572482378238  0.87053284268427
 1  14.88694011981198 -0.65666318231823 -0.01235942714271
 1  14.50807070697070  0.95622601810181  2.89326209920992
 1  14.05540281378138 -0.74498217011701  2.12579007710771
 1  15.75010204330433 -0.64667825092509  2.52080855855586
 1  15.26244737963796  2.06684667806781 -0.91922189688969
 1  15.64845887848785  2.39699923542354  1.01965028822882
 1  17.29699101420142  0.35817898849885  1.28748893559356
 1  17.48180570477048 -0.31305313611361 -0.56826820422042
 1  18.23779878697870  2.08535508330833 -1.18672166046605
 1  18.27551754785479  2.75942984988499  0.61064773527353
 1  19.73166572777278  0.44716756295630  0.59888323912391
 1  19.81968028602860  0.43589863946395 -2.19604172937294
 1  20.98923321332133 -0.32629443124312 -1.50151428482848
 1  19.20290301730173 -0.91484920332033 -1.13195126982698
 1  20.93485026362636  2.68091767086709  0.62845359895990
 1  22.15553329362936  1.43908049074907 -0.06841955695570
 1  21.20345699859986  2.59402688988899 -0.99990478677868
 1 -0.14190981608161 -3.67219996939694  2.93870221822182
 1 -1.38324800580058 -5.06021329502950  3.28451908850885
 1 -1.41489550285029 -3.38188666576658  3.82637679087909
 8 -11.86303467776778  3.82651745094509 -0.75893770747075
 1 -13.08664917641764  2.34968620872087 -1.09116972197220

