%nproc=4
%Mem=4GB
# td=(NStates=1) iop(3/107=0140000000,3/108=0140000000) iop(3/107=0140000000,3/108=0140000000) CAM-B3LYP/6-31G(d,p) 

TD

0 1
12 -5.72017352395240  1.13416829112911  0.26606521172117
 6 -5.09547993519352 -2.14163262656266 -0.32114898169817
 6 -3.42225101420142  1.13543382818282  2.65523089638964
 6 -6.26264506020602  4.58102136633663  0.73317352615262
 6 -8.07930369746975  1.13425427612761 -2.30384805830583
 7 -4.33040729402940 -0.26049424122412  0.92880421922192
 6 -4.27209073657366 -1.55622932453245  0.59948229782978
 6 -3.24869799429943 -2.35812911571157  1.49731409510951
 6 -2.90674384538454 -1.30987387828783  2.58700525662566
 6 -3.56431385878588 -0.00456308400840  2.04351893709371
 6 -3.33350639003900 -1.67230067146715  4.05774847424742
 6 -2.04689988318832 -2.71499890919092  0.64833013851385
 6 -0.91095273877388 -3.48727630823082  1.44543813181318
 6  0.23901900240024 -3.86704054475448  0.58789698439844
 8  0.53471353565357 -3.30319763336334 -0.48395462966297
 8  1.04511135683568 -4.59305892319232  1.34303891119112
 7 -5.01250206650665  2.69919929682968  1.47927815951595
 6 -4.04270636043604  2.40574799649965  2.37557816111611
 6 -3.76390589428943  3.57099560176018  3.11970252645265
 6 -4.59021957465747  4.62317384568457  2.61101037233723
 6 -5.34153025722572  3.94892298749875  1.57136322862286
 6 -2.80466582968297  3.71929930573057  4.35542973237324
 6 -4.61669820042004  5.99212663316332  2.93772327712771
 8 -4.09400944894489  6.60506839483948  3.87481138103810
 7 -7.09145294519452  2.62538243404340 -0.52990464676468
 6 -7.04345706050605  3.94815443264326 -0.33045473417342
 6 -7.88216340274027  4.63387011181118 -1.24796890639064
 6 -8.44904435773577  3.57479440934093 -2.12048099249925
 6 -7.89241813231323  2.41119712851285 -1.64686063256326
 6 -8.34098708960896  6.09194910431043 -1.18500800960096
 6 -9.45404976827683  3.77829822802280 -3.21233586638664
 6 -8.79616106980698  4.12481062726273 -4.53527993199320
 7 -6.41112953195320 -0.12156717441744 -1.13384847684768
 6 -7.42202173177318 -0.05228129672967 -2.10587479817982
 6 -7.57347485468547 -1.33617532113211 -2.77191971457146
 6 -6.69457900670067 -2.14972454425443 -2.15255142084208
 6 -6.00897931333133 -1.37372093719372 -1.17162329272927
 6 -8.48620407820782 -1.73621374737474 -3.84739163536354
 6 -6.21213488058806 -3.59453503740374 -2.03916747184718
 8 -6.58601299679968 -4.50384808320832 -2.69290555565557
 6 -5.08800736283628 -3.52476052865287 -0.82233455325533
 6 -5.29544702210221 -4.64860030113011  0.13659733153315
 8 -5.67269304090409 -4.52652166026603  1.24489085248525
 8 -4.96662636083608 -5.81739293569357 -0.40109325392539
 6 -5.01358892309231 -7.04254610791079  0.47242907270727
 6  2.35395636883688 -4.97938905910591  0.60831478587859
 6  3.44958949394940 -4.01388154905491  0.94368226802680
 6  4.09902929312931 -3.22322519261926  0.20285392039204
 6  3.68109244814481 -2.98413335463546 -1.31390089458946
 6  5.21102752855286 -2.38526357395740  0.75999979877988
 6  6.64371924322432 -2.64966789198920  0.06310777817782
 6  7.69334465806581 -1.78901825732573  0.64174986548655
 6  9.09993081438144 -1.93042787638764 -0.03410119261926
 6  9.63092947464746 -3.38400904130413  0.18598514081408
 6  10.06083666276628 -0.86016625402540  0.35467798329833
 6  11.42056935933593 -0.99485909280928 -0.19014778097810
 6  12.25818350695069  0.27669229672967  0.13635048264826
 6  13.59972242804280  0.37087195709571 -0.54388915211521
 6  14.50047834683468 -0.85966536913691 -0.34378852975298
 6  14.30393633323332  1.64575074667467 -0.15050430523052
 6  15.50048423882388  2.15639366756676 -0.95642063706371
 6  16.09943252765277  3.45489024182418 -0.59832044524452
 6  17.33033828292830  3.84744258585859 -1.40004393959396
 6  17.16123871357136  3.94271916361636 -2.91357358155816
 6  17.90416982308231  5.05878114341434 -0.81407086598660
 1 -2.56699242204220  1.16482075747575  3.32982345074507
 1 -6.41955993479348  5.59687506790679  0.94144313601360
 1 -8.84052445964596  1.09522982588259 -3.04118959775978
 1 -3.61155222002200 -3.31594691009101  1.81771983278328
 1 -1.80404752865287 -1.21759942154215  2.41284256035604
 1 -2.81937171627163 -2.49229239043904  4.61369491349135
 1 -3.13223401610161 -0.83371327572757  4.64962699249925
 1 -4.40743325502550 -1.86646572747275  3.94802875337534
 1 -2.14024933863386 -3.34684420172017 -0.25944656845685
 1 -1.54795262766277 -1.66841595789579  0.50609873147315
 1 -0.56788222172217 -2.96516781238124  2.46267048574857
 1 -1.17323204480448 -4.62512964416442  1.71041283928393
 1 -1.70514062786279  3.57388691309131  3.97349325902590
 1 -3.11079206930693  4.77312451845185  4.76603286098610
 1 -3.07549054405441  2.93355435293529  5.08331333733373
 1 -5.35489855375538  6.57718191259126  2.21926724812481
 1 -10.06042517601760  3.04983564066407 -3.15291854355435
 1 -10.22651344924492  4.60031387548755 -3.01247153785379
 1 -9.69873967376738  4.28184659865987 -5.43053825612561
 1 -8.16333584298430  4.99742948834884 -4.63845380038004
 1 -8.16204605360536  3.31889124792479 -4.99367929272927
 1 -8.35652324192419 -1.25971651455145 -4.83741473977398
 1 -8.41847283028303 -2.71183458855886 -4.14459709670967
 1 -9.53151323082308 -1.37811463486349 -3.58676558325833
 1 -4.16788414581458 -3.84525935253525 -1.42009529642964
 1  2.43644477747775 -5.84642258525853  0.81408736563656
 1  1.94880562396240 -4.85491246734673 -0.45449889948995
 1  3.86353847614761 -4.37063634543454  1.99703471107111
 1  2.49723471017102 -3.00249587068707 -1.46150869186919
 1  3.90260487378738 -1.96431999129913 -1.49592206270627
 1  4.20336251025103 -3.85125885508551 -1.91364028992899
 1  5.09067910881088 -1.34149057305731  0.59265114861486
 1  5.33877240454045 -2.54297592999300  1.83085796609661
 1  6.92207973467347 -3.67442063416342  0.14363224722472
 1  6.54569472987299 -2.46770437943794 -1.07284788028803
 1  7.43864279557956 -0.66665999109911  0.46407365286529
 1  7.72294439733973 -2.01759834293429  1.77188157345735
 1  8.84014812411241 -1.83066134133413 -1.29444278237824
 1  8.98662318101810 -4.22790156155616 -0.19707349974998
 1  10.73215255605561 -3.42886708880888 -0.29381949544954
 1  9.73610267166717 -3.53123421492149  1.27887833053305
 1  9.46799595019502  0.05306103230323  0.05698106190619
 1  9.86574667216722 -0.97810434433443  1.55622516251625
 1  12.04974011531153 -1.95984601650165 -0.26615098829883
 1  11.25838192489249 -1.09572247714771 -1.30111144474447
 1  11.65290632413241  1.21259568876888 -0.06826638183818
 1  12.29260408370837  0.32863405480548  1.25581386158616
 1  13.50776757745775  0.55197963026303 -1.70014225292529
 1  14.53185252355235 -0.84473268596860  0.82972865286529
 1  13.99144471547155 -1.77604662096210 -0.34541086258626
 1  15.31240222862286 -0.74744794299430 -1.14484137663766
 1  13.42736093029303  2.41565618471847 -0.33916570427043
 1  14.52976967726773  1.68039832903290  1.00029724362436
 1  16.27787944374438  1.29888850155015 -0.99822631333133
 1  15.12873845724572  2.22113602640264 -1.99088046774677
 1  15.34087549214922  4.13910928892889 -0.75970796889689
 1  16.50651342144215  3.45974261566157  0.32545244564456
 1  18.23612729412941  2.85865735693569 -1.04119319891989
 1  16.32876359675967  4.77936446534653 -3.08041040084008
 1  18.08668459195920  4.04300381368137 -3.35230983608361
 1  16.63618381858186  2.98056912691269 -3.58220625522552
 1  18.10220626782678  4.84462568006801  0.29207087128713
 1  18.77165468776878  5.48411256345635 -1.26646356075608
 1  17.25067661856185  5.83313281638164 -0.98663272457246
 1 -4.62870817221722 -7.81099053215322 -0.10395393309331
 1 -6.17141157145715 -7.33306039263926  0.55290879837984
 1 -4.51909007760776 -6.83987556315632  1.37701215781578
 8 -7.93883147474748  6.89206570737074 -0.36585436943694
 1 -8.99999829692969  6.34834047894789 -1.93364904770477

