%nproc=4
%Mem=4GB
# td=(NStates=1) iop(3/107=0140000000,3/108=0140000000) iop(3/107=0140000000,3/108=0140000000) CAM-B3LYP/6-31G(d,p) 

TD

0 1
12 -5.61293279987999  1.17761263556356  0.28578718391839
 6 -5.07817820502050 -2.16960542384238 -0.42335920272027
 6 -3.40979976907691  1.14579486428643  2.79484485778578
 6 -6.17807660336034  4.48024128832883  0.74596480528053
 6 -7.86042180928093  1.21717256795680 -2.36428410191019
 7 -4.36656090939094 -0.29132732453245  1.02741408020802
 6 -4.32610613811381 -1.62653635523552  0.67276962656266
 6 -3.27609073357336 -2.38772207500750  1.47028139183918
 6 -3.00205337633763 -1.41051394229423  2.64469102520252
 6 -3.58269569696970 -0.03326595429543  2.13277786298630
 6 -3.54962800220022 -1.73556699809981  3.96737943734373
 6 -2.01794698789879 -2.65175258455846  0.60069537503750
 6 -1.06507815131513 -3.58399598019802  1.38655224322432
 6  0.20704580508051 -3.89011285198520  0.65846404110411
 8  0.30279034333433 -3.54166147974798 -0.49053528772877
 8  0.96919376507651 -4.69129874717472  1.39309391669167
 7 -4.78650946724673  2.65092446934693  1.47696792849285
 6 -3.98991108090809  2.36014343604360  2.47157776107611
 6 -3.62696219991999  3.58422692489249  3.17607816401640
 6 -4.44727528022802  4.55270679897990  2.58640791209121
 6 -5.19789589378938  3.93920201540154  1.51710780308031
 6 -2.80539590269027  3.82650002580258  4.44765895529553
 6 -4.44809133973397  6.03857127762776  2.78306781158116
 8 -3.98063811181118  6.56703459145915  3.73355725562556
 7 -6.68360216011601  2.66324622042204 -0.75744740104010
 6 -6.80858357315732  3.94909452665267 -0.36310799949995
 6 -7.87670285668567  4.66460318511851 -1.12676678617862
 6 -8.29530898419842  3.70599752965297 -2.02535147954795
 6 -7.61293018351835  2.47434344314431 -1.81905785228523
 6 -8.24593758465847  6.00723063246325 -1.13757326612661
 6 -9.36485084838484  3.92041243944394 -3.14718935173517
 6 -8.59335078877888  4.14450259645965 -4.54427083108311
 7 -6.37329574857486 -0.16506152385239 -1.09112420442044
 6 -7.32864239383938 -0.05142121072107 -2.10887509820982
 6 -7.48523603080308 -1.38126983058306 -2.75488801140114
 6 -6.63562311111111 -2.25291486328633 -2.06939310501050
 6 -6.01635005040504 -1.41087465256526 -1.14616074647465
 6 -8.46712217001700 -1.53071319731973 -3.86385328152815
 6 -6.20778444554456 -3.67162274617462 -2.06391994709471
 8 -6.51129552505251 -4.57599529792979 -2.80291655675568
 6 -5.05196375847585 -3.56953500610061 -0.81758407820782
 6 -5.35381285868587 -4.69439488058806  0.12758643044304
 8 -5.74498026962696 -4.47471647974798  1.26212257565757
 8 -4.98609830803080 -5.88893008940894 -0.30201334593459
 6 -5.23639120332033 -6.95399725302530  0.56195802560256
 6  2.25259623282328 -5.14818593879388  0.76697065146515
 6  3.39796433143314 -4.19558971987199  1.09378727852785
 6  4.02632202240224 -3.33667653775378  0.25407904290429
 6  3.69042338123812 -3.17975291659166 -1.21595109960996
 6  5.09428585438544 -2.38366341394139  0.72926672547255
 6  6.43433830513051 -2.70167309250925  0.08599006640664
 6  7.59503482708271 -1.79241859735974  0.53341903240324
 6  8.97979880118012 -1.93187802140214 -0.12051983448345
 6  9.58581496319632 -3.37607824822482  0.15155169746975
 6  9.89444002310231 -0.90247048444844  0.25545806130613
 6  11.28058536093609 -0.94796440334033 -0.35215398159816
 6  12.03682137073707  0.34664929242924 -0.04644779717972
 6  13.48264071987199  0.47491236113611 -0.61345610881088
 6  14.43249154815481 -0.65909531213121 -0.32123627452745
 6  14.27331327092709  1.71350752235224 -0.09910916571657
 6  15.43875806620662  2.20638866706671 -0.97833282828283
 6  16.10517310171017  3.56907165996600 -0.55232584578458
 6  17.30307555665567  3.94119196079608 -1.51983591879188
 6  16.92720531023102  4.25709060076008 -2.90102232643264
 6  17.83171257735773  5.22677794309431 -0.69601906080608
 1 -2.71696741954195  1.06450072547255  3.60795126352635
 1 -6.66214419321932  5.48215359575958  1.01938092979298
 1 -8.55606601380138  0.98559886278628 -3.29050452925293
 1 -3.76767783258326 -3.41312662806281  1.83273133393339
 1 -1.91845896979698 -1.28360602220222  2.71035231133113
 1 -2.90099987908791 -2.58375153635363  4.16145968996900
 1 -3.60955174787479 -0.99617952235224  4.61957398719872
 1 -4.55987849954995 -2.12764184508451  3.73934788528853
 1 -2.29327464116412 -3.32492200950095 -0.29926054985499
 1 -1.47904573697370 -1.58845796209621  0.45959408100810
 1 -0.69471490499050 -2.97323861946195  2.15716993569357
 1 -1.79902462406241 -4.41498863006301  1.51120291829183
 1 -1.75883599739974  3.40479000340034  4.45778168786879
 1 -2.61675266536654  4.84986219221922  4.62611886958696
 1 -3.28111110611061  3.28408940644064  5.33784879087909
 1 -5.16635969986999  6.57531172557256  1.94659998139814
 1 -10.17268640214022  3.06281693879388 -3.33272652435243
 1 -10.02171296919692  4.74407825192519 -2.92355264596460
 1 -9.32421222102210  4.10698911291129 -5.32984818711871
 1 -8.10185969536954  5.18136788218822 -4.53877383238324
 1 -7.90892074107411  3.10954031283128 -4.83078300310031
 1 -8.26228381798180 -0.60949149204921 -4.64796579487949
 1 -8.29385036803680 -2.45580898599860 -4.48309094609461
 1 -9.57628770827083 -1.54357118051805 -3.40475738243824
 1 -4.01091844924493 -3.60036486308631 -1.22241552845285
 1  2.48106923992399 -5.99444738773877  1.02443840074007
 1  2.04576531993199 -5.29379635573557 -0.37454090369037
 1  3.74381650395040 -4.23676295809581  2.20595560316032
 1  2.65688067476748 -3.44791041214121 -1.27868040904090
 1  3.92779739303930 -2.17784134343434 -1.79412188268827
 1  4.03351552555255 -4.02330605980598 -1.74108303420342
 1  4.91505154605461 -1.45765218921892  0.47284916841684
 1  5.15459398669867 -2.44611624402440  1.76122100240024
 1  6.72615014171417 -3.64124731683168  0.22185006900690
 1  6.15799595999600 -2.58233584258426 -1.00314090959096
 1  7.20345927722772 -0.81696502160216  0.53581082658266
 1  7.65213731663166 -2.15202178527853  1.57033141844184
 1  8.88685279457946 -1.95412368756876 -1.10497383548355
 1  8.59967448614861 -4.06919569096910 -0.17813160556056
 1  10.38117745854585 -3.80081428352835 -0.47338745224522
 1  9.87367642904290 -3.56561765326533  1.33570401310131
 1  9.44536368696870  0.12895862206221  0.15498086188619
 1  10.15488558605861 -1.01629816371637  1.41517105710571
 1  11.98354349564957 -1.79393942584258  0.11461708850885
 1  11.18977506420642 -0.97180008490849 -1.37074840844084
 1  11.53273430693069  1.06647107630763 -0.35848540374037
 1  12.22800762406241  0.50445163656366  1.06697497769777
 1  13.23082988368837  0.82428686098610 -1.69657189588959
 1  14.24880421872187 -0.76613482618262  0.82612829282928
 1  14.05933150415041 -1.41202021832183 -0.84436075757576
 1  15.58925991439144 -0.62715591379138 -0.61917881038104
 1  13.57092528672867  2.66328094719472  0.08719693199320
 1  14.60474717501750  1.76210649984999  0.98643585748575
 1  16.16190784658466  1.39894850755075 -1.07812430313031
 1  14.95451103450345  2.26802071487149 -2.08122950265026
 1  15.18721012561256  4.29697507550755 -0.45828782688269
 1  16.59206197629763  3.51260790219022  0.39335923632363
 1  18.10738441984198  3.18796028722872 -1.52265134473447
 1  16.00553127352735  5.00281681058106 -2.84260662046205
 1  17.68076399989999  4.82457197049705 -3.35577018211821
 1  16.89898009820982  3.29994106410641 -3.59462749734973
 1  18.12680872807281  4.68771998949895  0.24282594679468
 1  18.65203272557256  5.79175332753275 -1.26932384678468
 1  17.11935348624862  5.94951445454545 -0.45284934623462
 1 -5.10341564296430 -7.87652708580858 -0.04156769446945
 1 -6.47313174347435 -7.00764785138514  0.83832734023402
 1 -4.71045921452145 -6.80081165676568  1.41118557515752
 8 -7.82269986158616  6.89533603440344 -0.43427121112111
 1 -9.08202649974998  6.29569521442144 -1.82387807060706

