%nproc=4
%Mem=2GB
# td=(NStates=1) iop(3/107=0140000000,3/108=0140000000) iop(3/107=0140000000,3/108=0140000000) CAM-B3LYP/6-31G(d,p) 

TD

0 1
12 -6.77686025812581  0.65059420352035  0.07595521502150
 6 -4.57047415391539 -1.98366678847885  0.38484876187619
 6 -4.50437225262526  2.76819845294529  0.89589247084709
 6 -9.13019572427243  3.05615964006401 -0.18703820552055
 6 -9.25769386698670 -1.67530055965597 -0.68306836553655
 7 -4.87386245814581  0.38260765846585  0.54623365546555
 6 -4.01156842244224 -0.75536524332433  0.57002755815582
 6 -2.59585300390039 -0.40782254145415  0.86579864216422
 6 -2.55338530433043  1.10591073987399  1.07767993049305
 6 -4.11374763766377  1.43986407160716  0.93033780848085
 6 -2.04883116881688  1.30056185208521  2.69298386118612
 6 -1.52566131453145 -0.73196575997600 -0.30422909660966
 6 -0.13952207050705 -1.07114882148215  0.26594566806681
 6  0.84364544374437 -1.17064430133013 -0.92082025582558
 8  0.76710677877788 -0.60964357685769 -1.90858184838484
 8  1.90716100270027 -1.99763006160616 -0.45948087058706
 7 -6.74888663086309  2.60752112211221  0.30781452935294
 6 -5.82821338223822  3.24231287448745  0.69429572577258
 6 -6.03902811801180  4.65938562336234  0.61913678227823
 6 -7.29346005940594  4.93221931243124  0.22161874517452
 6 -7.86128783268327  3.62574138253825  0.08194302570257
 6 -5.11526644694469  5.61675910641064  1.26199386738674
 6 -8.00832239353935  6.16792371247125  0.12145166886689
 8 -7.52498641484148  7.26037765436544  0.44816267306731
 7 -8.74669822332233  0.80222108130813 -0.29887253635364
 6 -9.48320199259926  1.82511724702470 -0.44066511881188
 6 -10.88809543984399  1.50982085318532 -0.88338411961196
 6 -10.89895425292529  0.24671557595760 -0.90014086958696
 6 -9.52097376067607 -0.29332749594960 -0.69175125182518
 6 -11.99174594989499  2.49636582968297 -0.88498314911491
 6 -12.25811893239324 -0.68705226752675 -1.13836196989699
 6 -12.70760762286229 -0.83558572377238 -2.74317711241124
 7 -6.99266574947495 -1.47167972927293 -0.06561920642064
 6 -8.13920658225823 -2.40903089978998 -0.31501469946995
 6 -7.68730631573157 -3.63229055145514 -0.44820583068307
 6 -6.30553617481748 -3.61427058795880  0.01425316471647
 6 -5.94922121082108 -2.25201401590159  0.15366155045505
 6 -8.45854437793779 -4.83335071287129 -0.87711052695270
 6 -5.13650985548555 -4.43090888898890  0.06363438913891
 8 -4.88006975567557 -5.64850538883888  0.05505601220122
 6 -3.93915764116412 -3.36398695789579  0.50040468766877
 6 -3.30274378527853 -3.56472264776478  1.81988170117012
 8 -3.96808204830483 -3.85081181598160  2.86810548034804
 8 -1.78296997189719 -3.72962926822682  1.70954089328933
 6 -1.08733725582558 -3.95381047114711  3.00433485868587
 6  2.94968686148615 -2.25806098299830 -1.46623786788679
 6  4.03958772617262 -1.34825182628263 -0.91084661696170
 6  5.25745650105010 -1.11990886228623 -1.76105230683068
 6  5.30314429822982 -1.67868100280028 -3.04642162436244
 6  6.36698052265227 -0.22085973887389 -1.35933249174917
 6  7.46994568856886 -0.80642642474247 -0.65237197449745
 6  8.61433399369937  0.24182981758176 -0.21420990149015
 6  9.90732382178218 -0.55409232953295  0.35373706800680
 6  9.73679119541954 -0.90166898159816  1.76163053185319
 6  11.05969829982998  0.57483233743374  0.26011084948495
 6  12.43102837333733 -0.22177086988699  0.58549686088609
 6  13.67049859245925  0.79330660536054  0.62642554095410
 6  15.00562689788979  0.17245052315232  0.64315897799780
 6  15.31243623172317 -0.70556283678368  1.83477340134013
 6  16.14685431383138  1.32550745274527  0.41428463376338
 6  17.43008248634863  0.75971119551955 -0.37271414531453
 6  18.55146469386939  1.88341553275328 -0.35188533533353
 6  19.73115531663166  1.21226972177218 -0.69099918361836
 6  19.78149795109511  0.79724515481548 -2.14539033023302
 6  21.02715988488849  2.20882230023002 -0.54854995089509
 1 -3.67757839613961  3.49106035703570  0.84754415611561
 1 -9.69105308780878  3.91603068816882 -0.40996463036304
 1 -10.15558805040504 -2.66165656495650 -0.80412323822382
 1 -2.25548806560656 -1.14614223202320  1.87237728602860
 1 -2.18944828342834  1.84973544974497  0.18231468486849
 1 -1.12653403710371  0.86829514391439  2.63052376347635
 1 -1.91454962886289  2.43157173357336  3.04029014681468
 1 -2.79695202770277  0.85895378067807  3.10287615671567
 1 -1.87467648794880 -1.39959123212321 -0.95750353715372
 1 -1.50822599159916  0.01999052615261 -1.00225001580158
 1  0.03228122642264  0.25177374407441  0.79234509970997
 1 -0.01083480328033 -2.04572090589059  0.90808104020402
 1 -4.05722025242524  5.70189801770177  0.51290624832483
 1 -5.44540482108211  6.56278895479548  0.97970487658766
 1 -4.97433846204621  5.62366132713271  2.26609438173817
 1 -8.95567858195820  6.20735584478448 -0.12737911371137
 1 -12.13969352295230 -1.81502236973697 -0.73189761696170
 1 -13.04481069606961 -0.02684628482848 -0.79099673607361
 1 -13.71869969306931 -1.26433854925492 -2.77081419851985
 1 -12.50474743854386  0.29789721122112 -3.40428259775977
 1 -12.02204902930293 -1.41146446344635 -3.58696530393039
 1 -8.91993117641764 -5.05177173277328 -2.12503473147315
 1 -8.06937215181518 -5.79723973657366 -0.80584023592359
 1 -9.33938121812181 -4.98972093329333 -0.19970536103610
 1 -3.12014159555956 -3.59429315421542 -0.23243154995500
 1  3.16855847124713 -3.35797307110711 -1.42025774287429
 1  2.62238652745275 -1.62073798879888 -2.52947318261826
 1  4.05493282098210 -0.73419616801680 -0.05587198559856
 1  4.75186824382438 -0.77761123362336 -4.13213332833283
 1  6.70125370377038 -1.96759543494349 -3.50346157005701
 1  4.91529535693569 -2.76947956225623 -3.52295647944795
 1  6.71249167106711  0.62380771817182 -2.10817343454345
 1  5.77497260666067  0.69090463826383 -0.62101636503650
 1  6.92966414531453 -1.33694189128913 -0.00352863126313
 1  7.39655505390539 -1.49074786508651 -1.33326280218022
 1  8.88956108750875  0.73857445224522 -1.34156694199420
 1  8.34637313541354  0.93056824502450  0.76176188458846
 1  10.34757720482048 -1.51557900160016 -0.33282043964396
 1  8.67699994429443 -1.48372718841884  1.88602696349635
 1  10.20274634403440 -1.87698157935794  1.84760665206521
 1  9.71880509210921 -0.03512473487349  2.54172547764776
 1  10.61942558035804  1.05507826772677 -0.76274344594459
 1  10.88391813841384  1.35680455605561  1.18975285558556
 1  12.72061960416042 -0.78962140164016  1.67871155445545
 1  12.47066922092209 -1.17811603220322 -0.46469946744675
 1  13.33078794879488  1.56769631463146 -0.31294019861986
 1  13.65239728452845  1.43510776207621  1.58406419581958
 1  15.11853327912791 -0.69149666566657 -0.37460565176518
 1  15.42777267716772 -0.21796140064006  2.66258903190319
 1  15.16587386088609 -1.77224489638964  1.67416491459146
 1  16.33947098019802 -0.98425200830083  1.82363884158416
 1  15.76261739663966  2.32192218561856 -0.09893986868687
 1  16.49032306490649  1.68819835533553  1.69481780498050
 1  17.72373368846885 -0.45491232063206  0.13332351905190
 1  17.11511903610361  0.29821799099910 -1.36446782418242
 1  18.33258826592660  2.49467601540154 -1.06072906120612
 1  18.76672666876688  2.34660856775678  0.70243691419142
 1  19.84338689988999  0.34095694189419 -0.08746539573957
 1  19.68771708970897  1.67606265586559 -2.43747587278728
 1  20.62731702170217  0.43914211241124 -2.55873000640064
 1  18.83628635563556  0.14996727832783 -2.50810888558856
 1  21.23593037163716  2.37504708380838  0.45738649224922
 1  21.78897663796380  1.91957854055406 -0.85583829882988
 1  20.98993564646464  2.88392587978798 -1.08941373767377
 1 -0.12083770887089 -4.02311506090609  2.56499484748475
 1 -1.51798147914791 -4.93268054175418  3.27502813941394
 1 -1.51265527882788 -3.10008848594859  3.70133428662866
 8 -11.86800517481748  3.72811761096110 -0.86909872357236
 1 -13.00192070357036  1.89362060216022 -1.20575118011801

