%nproc=4
%Mem=4GB
# td=(NStates=1) iop(3/107=0140000000,3/108=0140000000) iop(3/107=0140000000,3/108=0140000000) CAM-B3LYP/6-31G(d,p) 

TD

0 1
12 -5.62942444904490  1.23128800310031  0.17439604480448
 6 -4.97356774397440 -2.13072153545355 -0.35348221502150
 6 -3.45261405050505  1.14729501430143  2.77868324162416
 6 -6.13806260196020  4.54342760696070  0.58384859365937
 6 -7.97889365646565  1.21277212791279 -2.48266594009401
 7 -4.34513876717672 -0.30077826962696  0.99900123892389
 6 -4.21607513501350 -1.56100980258026  0.63338568816882
 6 -3.23354647914791 -2.40716401920192  1.44233859755976
 6 -2.97559073007301 -1.34260715161516  2.69711626772677
 6 -3.62689011641164 -0.06088871657166  2.21814639983998
 6 -3.64416745614561 -1.75965940734073  4.01048374777478
 6 -1.92593778697870 -2.74592200150015  0.61895720122012
 6 -0.96736838033803 -3.69046662726273  1.50501408940894
 6  0.21881698219822 -4.01493533423342  0.66670486518652
 8  0.25919598389839 -3.71077839143914 -0.54360059425943
 8  1.13686053175318 -4.73537315461546  1.34525913321332
 7 -4.87236805310531  2.62565194209421  1.47649788148815
 6 -4.00655274507451  2.44587200890089  2.41818242154215
 6 -3.72149165286529  3.68173667586759  3.18159871607161
 6 -4.55400595329533  4.69105063336334  2.48271754305431
 6 -5.22867897209721  4.00898899409941  1.47057314961496
 6 -2.80095545864586  3.83419079487949  4.29832402180218
 6 -4.52072860346035  6.05988340884088  2.94707421222122
 8 -3.89731977997800  6.55881376937694  3.89224312421242
 7 -6.84825862576258  2.62528242404240 -0.77757941424142
 6 -6.80694340914091  3.98044766196620 -0.45321701040104
 6 -7.88037322372237  4.59307603240324 -1.26083019251925
 6 -8.45402485578558  3.68083501340134 -2.13062200660066
 6 -7.75182407290729  2.42325833463346 -1.74258020452045
 6 -8.26533952485249  6.02543245264526 -1.07038654745475
 6 -9.48132249554956  3.80586098429843 -3.20152478527853
 6 -8.96750820452045  4.21548969516952 -4.56517292129213
 7 -6.43256167516752 -0.15314033173317 -1.05766085808581
 6 -7.25361489108911  0.02328626002600 -2.18890310101010
 6 -7.57222472967297 -1.27045874947495 -2.67162968556856
 6 -6.61398094689469 -2.05879545134513 -2.01284745044504
 6 -5.95971438683868 -1.36457002210221 -1.02894902530253
 6 -8.53644910271027 -1.57014714071407 -3.79753664986499
 6 -6.24995866296630 -3.48710429432943 -2.03545710081008
 8 -6.54848924442444 -4.53288098649865 -2.60449671477148
 6 -5.07643620572057 -3.50931898449845 -0.92932525232523
 6 -5.28659613701370 -4.60328576967697 -0.00082641084108
 8 -5.64011978357836 -4.50143915201520  1.24536089948995
 8 -4.99650934913491 -5.83561475787579 -0.37193033763376
 6 -5.26749431363136 -6.95687754105411  0.47251908170817
 6  2.25925689888989 -5.15714683488349  0.59906386078608
 6  3.39471400640064 -4.21456161706171  0.98039593939394
 6  4.06811620182018 -3.35499836993699  0.19631326632663
 6  3.82776711561156 -3.43214815611561 -1.28477798229823
 6  5.23547997379738 -2.52571761936194  0.80540433923392
 6  6.53175804710471 -2.77740066526653  0.12902436983698
 6  7.61819714331433 -1.90579993549355  0.54171986248625
 6  9.01674249554955 -2.01241607520752  0.01840405790579
 6  9.43151953365337 -3.51567220762076  0.21496803910391
 6  9.91765234433443 -0.91589182658266  0.43965648114811
 6  11.29769707210721 -0.78598820572057 -0.26725549174917
 6  12.25628331693169  0.32853748124812  0.17363421102110
 6  13.56551900770077  0.50672554245425 -0.61464622782278
 6  14.47187548654865 -0.64465386798680 -0.39235338623862
 6  14.17013295289529  1.86711288288829 -0.16028528332833
 6  15.41334552495250  2.29950797899790 -0.98806380138014
 6  16.01694427882788  3.63767852065207 -0.61938255145515
 6  17.35156040514051  3.98577641924192 -1.38610254545455
 6  17.28661125082508  4.05625051675167 -2.94565678987899
 6  17.82075148124812  5.24464973027303 -0.86700615951595
 1 -2.69145486828683  1.12158643404340  3.66706717511751
 1 -6.29089706850685  5.63835921632163  1.01033002470247
 1 -8.67414782198220  1.30199050195019 -3.21452693149315
 1 -3.68571963676368 -3.26488180358036  1.85971403220322
 1 -1.73253037693769 -1.27755541714171  2.95104638073807
 1 -3.22279205830583 -2.67525068626863  4.51565510951095
 1 -3.54916570927093 -0.85344524892489  4.51059308910891
 1 -4.83956646834683 -1.79929901080108  3.94009796029603
 1 -2.13400871457146 -3.09480899819982 -0.32984360816082
 1 -1.37459529192919 -1.67931704800480  0.77681580318032
 1 -0.66347178067807 -3.31079237483748  2.46542076077608
 1 -1.51688641024102 -4.68648577977798  1.83541533953395
 1 -1.83473358715872  3.78063758815882  4.15490139983998
 1 -2.92546353645365  4.76730393639364  4.74195045274528
 1 -3.09056205120512  3.05101609910991  4.96015102110211
 1 -5.30345340924092  6.71566576097610  2.34349967136714
 1 -9.99310844434443  3.03139379647965 -3.24771802350235
 1 -10.14394519241924  4.72599644374437 -2.81949223992399
 1 -9.75943574337434  4.50079849384939 -5.20619582188219
 1 -8.41303081248125  5.10547029242924 -4.64238419341934
 1 -8.52914276327633  3.36156551535153 -4.89188911371137
 1 -8.33035062466247 -0.91570211311131 -4.57878887718772
 1 -8.55714669766977 -2.59654305940594 -4.04005664266427
 1 -9.58106818631863 -1.09923674707471 -3.25117202390239
 1 -4.12879023642364 -3.79933476007601 -1.43667695459546
 1  2.61352248524853 -6.01409935293529  0.96904286118612
 1  2.22472321572157 -5.14328130423042 -0.53741719131913
 1  3.78660078237824 -4.27562684448445  1.89802481008101
 1  2.67874286098610 -3.62319794089409 -1.38960150115011
 1  3.96826143944394 -2.46631019031903 -1.70062253275327
 1  4.47888006200620 -4.06494022322232 -1.75891481738174
 1  4.89619966086609 -1.72033845784578  0.51277316081608
 1  5.35646417371737 -2.47430906330633  1.86523140344034
 1  6.98004553125313 -3.98621181328133  0.02176006000600
 1  6.40907106750675 -2.52885049404941 -0.90260085558556
 1  7.07750668196820 -0.77208053315332  0.41957920342034
 1  7.87563966686669 -1.90482706580658  1.55681006630663
 1  8.83760787008701 -1.78449672487249 -1.11894523262326
 1  8.89327384608461 -4.17085585698570 -0.35080887328733
 1  10.55378471927193 -3.76124032613261 -0.21561167466747
 1  9.42089115051505 -3.88252934443444  1.39831027372737
 1  9.46606575717572  0.03185891209121  0.51692705650565
 1  10.35590568806881 -1.10862739663966  1.51650119011901
 1  11.70429557085708 -1.89731976387639 -0.50322469566957
 1  11.18100418711871 -0.57730063496350 -1.36450778437844
 1  11.69594062756276  1.24538896809681 -0.04549410461046
 1  12.57960278357836  0.20252144354435  1.30150843104310
 1  13.34771157185718  0.75680011231123 -1.83152539123912
 1  14.87079641794179 -0.63034124682468  0.76705238523852
 1  14.05269084008401 -1.58579759605961 -0.54020034153415
 1  15.37137812621262 -0.55551875007501 -0.81601849434944
 1  13.49876807100710  2.85413003210321 -0.23856564426443
 1  14.37620432073207  1.97780807000700  0.91709892379238
 1  16.25581723752375  1.53526213891389 -0.93860035073507
 1  15.34324990839084  2.31093500630063 -1.99983136283628
 1  15.12968437303731  4.25461083908391 -0.84797679577958
 1  16.10963373347335  3.76490313171317  0.43700360076008
 1  17.98029171057106  3.17760925212521 -1.17064614421442
 1  16.52331305170517  4.71585811471147 -3.24809716951695
 1  18.27427335083508  4.32003151645165 -3.33532813791379
 1  16.90604080428043  3.07336840684068 -3.26812484708471
 1  17.93339938713871  5.08921013851385  0.24904656885689
 1  18.71422894519452  5.65704985718572 -1.43315022942294
 1  17.04248579947995  5.99205870897090 -0.70762482378238
 1 -4.70244554595460 -7.77650708380838 -0.18051158885889
 1 -6.44313874417442 -7.25481256785679  0.87797130463046
 1 -4.81892006060606 -6.60165174077408  1.35681013761376
 8 -7.89534712631263  6.84169066986699 -0.29195697969797
 1 -8.99553785088509  6.16612225712571 -1.84521020382038

