%nproc=4
%Mem=2GB
# td=(NStates=1) iop(3/107=0140000000,3/108=0140000000) iop(3/107=0140000000,3/108=0140000000) CAM-B3LYP/6-31G(d,p) 

TD

0 1
12 -6.72150472257226  0.51555069916992  0.12972059155916
 6 -4.37429453595360 -2.03190161196120  0.40079035603560
 6 -4.37400921632163  2.81650328342834  1.11039392099210
 6 -8.97024972967297  3.14078810291029 -0.23616311801180
 6 -9.19090718831883 -1.89780280988099 -0.60553061176118
 7 -4.75771084298430  0.38284768246825  0.66937596969697
 6 -3.99253651925193 -0.74616432323232  0.67257781318132
 6 -2.45168858745875 -0.51902366156616  1.05525758805881
 6 -2.48123808960896  1.07042719151915  1.35870803330333
 6 -3.94021028392839  1.40573065826583  0.98915369006901
 6 -2.43220950665066  1.33716551245124  2.72538710151015
 6 -1.53652240064006 -0.60341290469047 -0.13887256095610
 6 -0.14170228852885 -0.85801750835083  0.29596867036704
 6  0.67409848904890 -1.23758099499950 -0.87649582338234
 8  0.46772684078408 -0.98171078357836 -2.14221521172117
 8  1.86524681128113 -1.82893319191919 -0.58147306980698
 7 -6.75849759195920  2.45411578157816  0.43593734163416
 6 -5.58706926782678  3.31028967216722  0.65404170037004
 6 -5.99548376357636  4.67437712251225  0.62914778337834
 6 -7.19779049244925  4.67891398189819  0.30918750205020
 6 -7.69199090299030  3.35507431583158  0.04118895029503
 6 -5.21143606390639  5.77355478597860  0.87352502050205
 6 -8.10603216451645  6.03913083318332  0.38227775147515
 8 -7.70109402560256  7.22543416001600  0.53477133393339
 7 -8.75744929842984  0.64789564876488 -0.32970561966197
 6 -9.55836950935094  1.90371510681068 -0.36827788008801
 6 -10.84887151745175  1.60402027312731 -0.62283806500650
 6 -10.84654901240124  0.14816572097210 -0.82395325082508
 6 -9.63411507480748 -0.31033919711971 -0.70382245894589
 6 -11.96789356465646  2.42422861596160 -0.84551920272027
 6 -11.99633275377538 -0.62234579687969 -1.14199233293329
 6 -12.02781964406441 -1.03284544974497 -2.60875367006701
 7 -6.87110359325933 -1.54088664996500 -0.10250289478948
 6 -7.83510617221722 -2.32268226492649 -0.38175137313731
 6 -7.37258484358436 -3.76725404780478 -0.43927493759376
 6 -6.08297391859186 -3.56979614051405 -0.03666192679268
 6 -5.80808709740974 -2.29606842134213 -0.02706652235223
 6 -8.02836135963596 -4.96112349014901 -0.79488230413041
 6 -4.77774397889789 -4.45642144024402  0.04742276797680
 8 -4.52182393109311 -5.63455399369937 -0.21200069346935
 6 -3.71007473287329 -3.50488104730473  0.48402304950495
 6 -3.43536704760476 -3.75835201070107  1.96819653265327
 8 -3.93227846794679 -3.99433616841684  2.95343401320132
 8 -1.91848352325233 -3.56323262856286  1.88875881508151
 6 -1.23371189328933 -3.84039913001300  3.13590801600160
 6  3.02656454925493 -2.15895107200720 -1.46911815591559
 6  4.03124689208921 -1.05569257035704 -1.20406593889389
 6  5.06212696809681 -0.76786365776578 -2.09095529712971
 6  5.10168415221522 -1.37509064376438 -3.46971395359536
 6  6.17368119271927  0.28530087718772 -1.80534709320932
 6  7.38388708270827 -0.36359214131413 -1.30435717301730
 6  8.51305386568657  0.74925055965597 -0.79662814331433
 6  9.74919800920092 -0.01572849314931 -0.17816612231223
 6  9.37620513681368 -0.67488630333033  1.23918828762876
 6  11.07003933393339  0.88355320952095 -0.01746690829083
 6  12.33572884338434  0.08836014321432  0.36658496969697
 6  13.44249579217922  1.05966324102410  0.48550144854485
 6  14.93004934013401  0.29671294939494  0.76840150225022
 6  14.84304929302930 -0.05466774727473  2.31740166416642
 6  16.03053268166817  1.28082298429843  0.28857206250625
 6  17.35165464356436  0.58297352175218  0.28312143824382
 6  18.40961050845085  1.40890808200820 -0.22118226502650
 6  19.72046424752475  0.72863135793579 -0.34621470517052
 6  19.67856765806581 -0.61021559125913 -1.30029582078208
 6  20.73338050695070  1.75718713671367 -0.70004510041004
 1 -3.76110674897490  3.19926117711771  1.64830423212321
 1 -9.40945492799280  4.02459154425442 -0.40470410431043
 1 -9.83841633323332 -2.51564196349635 -0.66804963086309
 1 -2.33583610041004 -1.09400701850185  2.02212226052605
 1 -1.76979631823182  1.64058453465347  0.71484793819382
 1 -1.38254963866387  0.86734504890489  2.95457616871687
 1 -2.59959813371337  2.48160673707371  3.09321543934393
 1 -3.25969830233023  0.89266715201520  3.04449031813181
 1 -1.89944896519652 -1.28950022302230 -0.66755454225423
 1 -1.93165833483348  0.15194372147215 -1.08957874867487
 1  0.27178517681768 -0.06430786408641  0.81423728892889
 1 -0.27528124792479 -1.83636997079708  1.06037626972697
 1 -4.47087161756176  5.95785361326133  0.02394735243524
 1 -5.88419870047005  6.90802347824782  1.12442934903490
 1 -4.67873890209021  5.45894485548555  1.89451722402240
 1 -9.11023403750375  5.98100320952095  0.25095872007201
 1 -12.20763031663166 -1.37295816331633 -0.28745317251725
 1 -12.87627384238424  0.26906330613061 -0.99107674407441
 1 -12.70746856995700 -1.73373548894890 -2.82039915701570
 1 -12.23583054685469 -0.14095667416742 -3.10117228672867
 1 -10.93019984438444 -1.41434475147515 -3.11886849424943
 1 -7.80161934523452 -4.68541509710971 -1.90280250825082
 1 -7.52020723532353 -5.96722673527353 -0.49816946884688
 1 -9.32365964596460 -5.06856881808181 -0.25650104060406
 1 -2.98316789818982 -3.67919164406441 -0.10818912571257
 1  3.11727334273427 -2.98289556335633 -1.22829854695470
 1  2.63909819861986 -2.18914482948295 -2.49932016731673
 1  3.95813314101410 -0.65874862326233 -0.26441283968397
 1  4.39546260326033 -0.73156662916292 -3.74116423142314
 1  6.11262484088409 -1.31697037243724 -4.03586481038104
 1  4.60890471787179 -2.72135474977498 -3.51671585538554
 1  5.95569599149915  0.91397673507351 -2.85158777597760
 1  5.80992610201020  0.76601214901490 -0.93464772817282
 1  7.14709588848885 -1.42760095719572 -0.65695397379738
 1  7.76916231463146 -0.88940773107311 -2.27005648154815
 1  8.69809194059406  1.49260985578558 -1.66018880418042
 1  7.57759625772577  1.16736192439244  0.13449915831583
 1  9.98385083218322 -0.70159760346035 -1.16047320492049
 1  8.63167541184118 -1.43238205390539  1.23542190299030
 1  10.32299836923692 -1.05036891809181  1.83374526592659
 1  9.11283449504950  0.14846362396240  2.11806311141114
 1  10.98248188598860  1.22968572847285 -1.23689086068607
 1  10.97784753135313  1.62207108270827  0.58744262456246
 1  12.49456699889989 -0.22568500800080  1.63974765806581
 1  12.50369252325233 -0.86884510511051 -0.40727372487249
 1  13.85990086008601  1.67659720472047 -0.70513941854185
 1  13.29459150395039  1.76349060036004  1.33713950335034
 1  14.88035946174618 -0.77997551355136  0.35966777557756
 1  14.67602750265027  0.54366476197620  3.25198797179718
 1  14.13169044254425 -0.97470514241424  2.54616211431143
 1  15.94143117621762 -0.61294487758776  2.33031950965096
 1  15.92396353125312  1.82249224262426 -0.80573054775478
 1  16.17694172677268  2.23337287278728  1.12460078327833
 1  17.83340465556556  0.53921709230923  1.48133832053205
 1  17.41147867206720 -0.76241807260726 -0.21343272067207
 1  18.37102210931093  1.75958250605060 -1.49571255955596
 1  18.40325032113212  2.26816072297230  0.41371804230423
 1  20.11000356155616  0.33124597079708  0.82610596139614
 1  19.27439575757576 -0.36276122652265 -2.14376650185018
 1  20.50339462946295 -0.97977977977798 -1.62826696009601
 1  19.00436316331633 -1.34231194959496 -1.03462153685368
 1  21.34296107470747  2.63176275537554  0.07705845944594
 1  21.73360110041004  1.16776335903590 -0.78636135113511
 1  20.71412806570657  2.24439192639264 -1.66369116541654
 1 -0.29497512261226 -3.85332808220822  2.85065341334133
 1 -1.40268994999500 -4.81313858755876  3.50352098869887
 1 -1.19376338963896 -3.11098957605761  3.74944909810981
 8 -11.96221459575958  3.67645244444444 -0.75838765246525
 1 -12.81308181968197  1.93791503160316 -1.41834243924392

