%nproc=4
%Mem=2GB
# td=(NStates=1) iop(3/107=0140000000,3/108=0140000000) iop(3/107=0140000000,3/108=0140000000) CAM-B3LYP/6-31G(d,p) 

TD

0 1
12 -6.75693826592659  0.57690683478348  0.12958057755776
 6 -4.52713982048205 -2.03134155595560  0.37582785978598
 6 -4.44018583398340  2.76361799489949  1.11394427602760
 6 -9.02475518021802  3.17217124122412 -0.21085058675868
 6 -9.21243934153415 -1.74382741234123 -0.80344040274027
 7 -4.79571464336434  0.34805420312031  0.57708674077408
 6 -3.97726499209921 -0.86464617141714  0.66188674407441
 6 -2.60164358295830 -0.52103386258626  1.19120118241824
 6 -2.63580354615462  0.97602775157516  1.38546070857086
 6 -3.99233549644965  1.42208229342934  0.99704447914792
 6 -2.28789507520752  1.31068286418642  2.98383294609461
 6 -1.51077982638264 -0.82703526692669 -0.14374304800480
 6 -0.28225634393439 -1.19369107570757  0.41449052255226
 6  0.69369044824482 -1.39141637853785 -0.67348552235224
 8  0.56806687478748 -1.17175978847885 -1.84886587678768
 8  1.88595888248825 -2.16596689528953 -0.18920384288429
 7 -6.63956569876988  2.44155452545255  0.35300904880488
 6 -5.72406296719672  3.20957960116012  0.80053634983498
 6 -5.99627384258426  4.74195388018802  0.82412728132813
 6 -7.29805051845184  4.84439052955296  0.42414899819982
 6 -7.71940364426443  3.44259306770677  0.06872170357036
 6 -4.84464938523852  5.46848427892789  1.10816848484848
 6 -8.11236279757976  6.05956287638764  0.40342986668667
 8 -7.63848776497650  7.18995061166117  0.70083794059406
 7 -8.76725027852785  0.74377523672367 -0.52801545064506
 6 -9.45612928532853  1.90747548284828 -0.55911696399640
 6 -10.83175980628063  1.63398326942694 -0.96713249444945
 6 -10.79969432693269  0.23604450885089 -1.31079193469347
 6 -9.64355601890189 -0.40635879907991 -0.80875295199520
 6 -11.92009878517852  2.61757795089509 -1.09555420622062
 6 -11.91707482798280 -0.47144070637064 -1.66437457115712
 6 -11.90340720282028 -0.92778494369437 -3.12620541524152
 7 -7.04923140604060 -1.36876943824382  0.01675903140314
 6 -8.03153581518152 -2.31459145584558 -0.48126132413241
 6 -7.61386897199720 -3.64256157855786 -0.46416742684268
 6 -6.18360398159816 -3.66825598649865 -0.09414767536754
 6 -5.92391868056806 -2.24342315681568  0.07835401970197
 6 -8.57097562106211 -4.80783816161616 -0.88160097599760
 6 -4.96573277777778 -4.38875467356736  0.11412943864386
 8 -4.76588833753375 -5.49781031933193 -0.16416590999100
 6 -3.88907263266327 -3.39030959015902  0.41640628782878
 6 -3.31035454635464 -3.61667784328433  1.82869258225823
 8 -3.77192243234323 -3.80756749154916  2.84690336013601
 8 -1.78078975387539 -3.41822812811281  1.71791173037304
 6 -1.23981250335033 -3.79751484158416  2.99176360156016
 6  3.06198809160916 -2.27048222512251 -1.10053129722972
 6  4.03769753715372 -1.15328232933293 -0.80775630793079
 6  5.15896665206521 -0.93108998039804 -1.59210541214121
 6  5.19094307810781 -1.69933306800680 -2.85304228642864
 6  6.35310913551355 -0.02775042794279 -1.26795335383538
 6  7.48586728072807 -0.70633641574157 -0.42916965426543
 6  8.54496705700570  0.29718535313531 -0.29733821432143
 6  9.83088617801780 -0.31326824712471  0.19276097039704
 6  9.58062557885789 -0.69807862256226  1.55348971777178
 6  10.93294562456246  0.72090694489449  0.05329016741674
 6  12.33992926342634 -0.08681737453745  0.34087239843984
 6  13.33266480908091  1.16924419911991  0.32308520692069
 6  14.78936527172717  0.35426870497050  0.54629929202920
 6  14.94169915801580 -0.03290557105711  1.98651857585759
 6  15.93515314371437  1.39458436043604  0.17676088138814
 6  17.33700317841784  0.69806503090309 -0.14424129802980
 6  18.54844439183919  1.67726491769177 -0.42168231503150
 6  19.83458565966597  1.03475196999700 -0.93874395809581
 6  19.52583238453845  0.32544797509751 -2.11179697089709
 6  21.07685485438544  1.83875529352935 -0.91214631053105
 1 -3.69246988528853  3.21936318731873  1.59164856655666
 1 -9.78686266876688  3.92235132023202 -0.35797943184318
 1 -10.15614810641064 -2.48798919821982 -1.00861368726873
 1 -2.27647016381638 -0.94113173097310  2.26071611991199
 1 -1.74837417601760  1.45503597979798  0.76742319571957
 1 -1.46589797349735  0.82685099949995  3.28844955605561
 1 -2.02244041794179  2.49937851425143  3.02014813261326
 1 -3.06154848734873  1.13797168246825  3.84122999209921
 1 -2.01155017531753 -1.81756302930293 -0.63338112491249
 1 -1.73614878387839 -0.03805527842784 -1.17881767256726
 1  0.18791678997900 -0.55117655095510  1.09722558775878
 1 -0.49929364916492 -2.28700503430343  0.85413564566457
 1 -4.09813434383438  5.60183801170117  0.28379333703370
 1 -5.00621090169017  6.47873054895490  1.17992489858986
 1 -4.50617164536454  5.38182714371437  2.21077885018502
 1 -9.47181019511951  5.88311342054205  0.60861448564857
 1 -11.90887044064406 -1.36886775427543 -1.27808223542354
 1 -12.83170938593859  0.14479087888789 -1.62220985738574
 1 -12.45966378947895 -1.52012412781278 -3.35095221232123
 1 -12.20857782158216  0.12241966346635 -3.67039920942094
 1 -10.86139296369637 -1.46051936893689 -3.38700530793079
 1 -9.15689487278728 -4.60988754435444 -1.78712094009401
 1 -7.82247746234624 -5.60070008260826 -1.34606425832583
 1 -9.18060534053405 -5.01932389358936 -0.05905129562956
 1 -2.87146672807281 -3.50985471037104 -0.18670697749775
 1  3.46734835023502 -3.26662393619362 -0.73420913801380
 1  2.40242453125313 -2.07296321132113 -1.87280751605161
 1  3.88454578227823 -0.37525027342734  0.03151675327533
 1  4.32075513251325 -1.59132260476048 -3.33982409740974
 1  5.89105268366837 -1.43642231763176 -3.44111533543354
 1  5.67900172757276 -2.45296791109111 -2.63562774657466
 1  6.82969339123913  0.59325466286629 -2.58356097329733
 1  5.58958406780678  0.96147169496950 -0.82750701410141
 1  6.95224640354035 -0.93218141524152  0.43933565516552
 1  7.87830322872287 -1.96142493279328 -0.89385886178618
 1  8.80743287468747  0.72293288808881 -1.41771455675568
 1  8.17926642474247  1.02898808700870  0.51399710811081
 1  10.05670811791179 -1.33299074277428 -0.30572773037304
 1  9.10887313161316 -1.68569738543854  1.38375673647365
 1  10.42641871127113 -0.92930681188119  2.15530742214221
 1  9.44557776937694  0.16804558215822  2.05274657975798
 1  11.03440707850785  1.32302506240624 -1.16282345394539
 1  10.90043979057906  1.41466034163416  0.62771665196520
 1  12.45075261746175 -0.63724616411641  1.41451513481348
 1  12.44077623162316 -0.95578379897990 -0.27963096059606
 1  13.59755462546255  1.51422096709671 -0.58124702930293
 1  12.79704174897490  1.52798705000500  1.19075486488649
 1  14.60211163696370 -0.60790830683068 -0.21593978517852
 1  14.90690058995900  0.91131152665266  2.68988176117612
 1  14.50107738123812 -1.03340101200120  2.36118361646165
 1  15.81738877197720 -0.28461204430443  2.03631010871087
 1  15.86277741264126  2.23780377377738 -0.62964293899390
 1  16.20064409700970  2.00114965046505  0.97320564376438
 1  17.65112642774277  0.01841501210121  0.75098528522852
 1  17.15830335453545  0.11564973417342 -0.96648802620262
 1  18.13151815891589  2.16940348814881 -1.37910089838984
 1  18.59498949504951  2.34607851475147  0.63700037053705
 1  19.97447000820082  0.08778162436244 -0.28316496569657
 1  19.36496481448145  0.98834388398840 -2.87048917411741
 1  20.34588887888789 -0.36051785358536 -2.66119025242524
 1  18.34539726672667 -0.40329804820482 -2.12512058675868
 1  21.16855363396339  2.57399697879788 -0.16480572697270
 1  21.88911665196520  1.34953153585359 -0.98173088808881
 1  21.21697835073507  2.29760724792479 -1.89583437973797
 1 -0.06105173027303 -3.63645639503951  3.20699904790479
 1 -1.99105878687869 -4.62492976667667  3.25163580018002
 1 -1.54263827712771 -2.82421089818982  3.77252140534053
 8 -11.66948532283228  3.76067086628663 -0.85132694639464
 1 -12.80394090559056  1.98376961706171 -1.34746535153515

