%nproc=4
%Mem=2GB
# td=(NStates=1) iop(3/107=0140000000,3/108=0140000000) iop(3/107=0140000000,3/108=0140000000) CAM-B3LYP/6-31G(d,p) 

TD

0 1
12 -6.85853842594259  0.64406355045505  0.21947956745675
 6 -4.60634774127413 -2.16298472027203  0.46751702870287
 6 -4.26729854525452  2.79051068416842  0.88006088768877
 6 -8.84226693139314  3.41076510061006 -0.41194069576958
 6 -9.30907900550055 -1.70160318991899 -0.67058711741174
 7 -4.63742881478148  0.21247064476448  0.65954498659866
 6 -3.89015628122812 -0.99774948174817  0.71206176157616
 6 -2.47169058765877 -0.79221098029803  1.06913897619762
 6 -2.55036500230023  0.81475162396240  1.28105026752675
 6 -3.90423668656866  1.33744382958296  0.79394416911691
 6 -2.05018130383038  1.20709250515052  2.78916347914791
 6 -1.52141088948895 -1.25581814521452  0.01746307260726
 6 -0.03940205850585 -0.98239994659466  0.39369844334433
 6  0.89845092429243 -1.29941717861786 -0.78752692649265
 8  0.65563563166317 -0.98552116461646 -1.98742973317332
 8  1.93826411301130 -2.03434373297330 -0.41082600510051
 7 -6.60617235943594  2.71653202320232  0.10309405730573
 6 -5.45691625252525  3.27763640684068  0.53535983218322
 6 -5.77353156835684  4.72519220402040  0.72609747834783
 6 -7.20514122752275  5.10247633813381  0.23989057235724
 6 -7.64170587448745  3.68734754315432 -0.06197136573657
 6 -4.75182010231023  5.79254668516852  0.89190685868587
 6 -7.88687024832483  6.14899181928193  0.27291681538154
 8 -7.59306322252225  7.14698631523152  0.73136099289929
 7 -8.54534808830883  0.80986184538454 -0.48846149524952
 6 -9.34166783918392  2.02849758505851 -0.55753680598060
 6 -10.65514214451445  1.69606947804780 -0.89353513471347
 6 -10.83114747224722  0.31924282868287 -0.88209906540654
 6 -9.55530719401940 -0.24152231543154 -0.61568364506451
 6 -11.85879265456546  2.67799399249925 -1.08494314511451
 6 -12.23286640714071 -0.49919348164817 -1.02777091079108
 6 -12.28000486258626 -0.88945111031103 -2.49473226792679
 7 -6.92968945184519 -1.40433299459946 -0.04991763626363
 6 -8.02702536413641 -2.20221021772177 -0.38256145414541
 6 -7.61040862596260 -3.49758708110811 -0.41797280738074
 6 -6.29550517171717 -3.49370853175318 -0.02437069766977
 6 -5.96811310001000 -2.22139095359536  0.29370555485549
 6 -8.43765228872887 -4.68021539933993 -0.79409222512251
 6 -5.19086529102910 -4.37513331143114  0.20947897359736
 8 -5.04071582028203 -5.56670720902090  0.05002550915092
 6 -4.03908763416342 -3.46751731093109  0.54190883808381
 6 -3.63404691559156 -3.89010518601860  2.01820153315332
 8 -4.00013525362536 -4.17386412121212  3.15601427122712
 8 -2.25507718261826 -3.96114241954195  1.74132407160716
 6 -1.34704322642264 -4.08706379647965  2.87022144734473
 6  2.99347123992399 -2.39369454635464 -1.44715595969597
 6  4.06486025342534 -1.53977097819782 -1.15472100440044
 6  5.14537529292929 -1.26806367776778 -1.96166236783678
 6  5.26188017181718 -1.89877301200120 -3.18109509170917
 6  6.29906373097310 -0.28286593949395 -1.53737029552955
 6  7.34835352935294 -0.84626040814081 -0.89642637993799
 6  8.45210777107711  0.20356599119912 -0.72365084558456
 6  9.86806989638964 -0.52383930423042 -0.15473377907791
 6  9.62221973827383 -1.24833364806481  1.13836820562056
 6  10.92745507550755  0.52333718791879 -0.09890505210521
 6  12.24501977247725  0.00999230643064  0.11139945114511
 6  13.40372191479148  0.88354562926293  0.32695559395940
 6  14.78757509270927  0.23977725582558  0.50743540564056
 6  14.98272326042604 -0.42205448594859  1.90184010801080
 6  15.87201683008301  1.47987288928893  0.20669387468747
 6  17.25430490859086  0.94606983138314  0.08463158925893
 6  18.25498504590459  1.97956514771477 -0.11996214301430
 6  19.78634083518352  1.49969846464646 -0.30115019871987
 6  20.07265706700670  0.93017844814481 -1.80944673587359
 6  20.61598876777678  2.74566598459846 -0.00106520242024
 1 -3.37695833413341  3.68129938093809  1.12082148384838
 1 -9.44486846934693  4.06363544864486 -0.32366600050005
 1 -10.21034352595260 -2.41126152545255 -1.09080190609061
 1 -2.26681919871987 -1.38000561836184  1.83438348664866
 1 -1.91434077267727  1.50190066626663  0.81580803420342
 1 -0.64558594229423  1.13125143954395  2.78658937003700
 1 -2.52251042494249  2.71225980238024  2.52138825662566
 1 -2.71404373687369  0.32222010731073  3.26151202030203
 1 -1.59920894119412 -2.07361863486349 -0.37723551035103
 1 -1.69239440844084 -0.85970744364437 -0.87307709850985
 1  0.04327232553255  0.01174974167417  0.58575444064406
 1  0.21172745294529 -1.50117645144514  1.55897612971297
 1 -3.92331686208621  5.96524435233523 -0.00829587188719
 1 -5.18912919351935  6.82262493839384  0.81175808190819
 1 -4.15319634783478  5.81354031503150  2.19850762306231
 1 -8.71290430453045  6.19975508470847 -0.05941231703170
 1 -12.17699725332533 -1.52764363186319 -0.31259568676868
 1 -13.07175339033904  0.01237763756376 -0.64308194459446
 1 -13.26460428352835 -0.95977809320932 -2.72310942804280
 1 -12.09050601440144 -0.09222180068007 -3.10126229572957
 1 -11.69790661506151 -1.97246056305631 -2.93594020142014
 1 -8.95281446474647 -4.52302885848585 -1.50328255625563
 1 -7.97435264986499 -5.60224023662366 -1.04888454035403
 1 -9.49811709170917 -4.84381634283428 -0.03641903240324
 1 -3.37200678207821 -3.49471319621962 -0.34058236503650
 1  3.13394500990099 -3.43571084488449 -1.35732144924492
 1  2.32542683148315 -2.38899481448145 -2.33967420272027
 1  3.96464379207921 -0.82032478087809 -0.20100649904990
 1  4.87194025102510 -1.16730020252025 -4.08724883988399
 1  6.36335991439144 -2.03972264766477 -3.26292751665166
 1  4.57103093049305 -2.78143075737574 -3.38409259305930
 1  6.67835825772577  0.24979031643164 -2.63789640684068
 1  5.68974408380838  0.63702925072507 -1.00484474787479
 1  6.90088126702670 -1.26563476057606 -0.14502278067807
 1  7.63139853825382 -1.55426421672167 -1.32704218011801
 1  8.65621775317532  0.63536413121312 -1.75154794009401
 1  7.74445294339434  1.34951013921392  0.08959466786679
 1  10.11679412651265 -1.21650909460946 -0.81209836743674
 1  9.02860510481048 -1.95949476517652  0.88622698349835
 1  10.37274334373437 -1.67573145434543  1.58145003640364
 1  8.95962917451745 -0.68045926832683  1.88366967206721
 1  10.76546018381838  1.03909666956696 -1.13443061466147
 1  10.71670141674167  1.59286816241624  0.62842672297230
 1  12.43688123032303 -0.66173861336134  1.07475115841584
 1  12.63278543254325 -0.79242746334634 -0.75421841934193
 1  13.38497336733674  1.42875242024202 -0.83511241584158
 1  12.99624166896690  1.48234248554855  1.27060284968497
 1  15.11566299209921 -0.56272378837884 -0.34840303150315
 1  14.49526942684268  0.21860225572557  2.54102687568757
 1  14.35859313281328 -1.46097376927693  1.90986848494849
 1  16.13442047514751 -0.32247583068307  2.17362384008401
 1  15.70330146504650  1.84688468186819 -0.68888886358636
 1  16.00363439603960  1.93185272077208  1.03319164236424
 1  17.31811312641264  0.29321249184918  1.14913510021002
 1  17.40429795399540  0.30182835203520 -0.70395177257726
 1  17.66492149924993  2.46034258205821 -0.92339532783278
 1  18.55583557965797  2.43424733163316  0.80139681018102
 1  20.13262582378238  0.69758260446045  0.35057840864086
 1  19.93414173217322  1.84441949154916 -2.42474459965997
 1  21.30201449144914  0.60828902710271 -1.77339147254725
 1  19.29498222522252 -0.03680139853985 -1.74744281898190
 1  20.59809658825882  3.11853143224322  1.26945769936994
 1  21.89727746804681  2.44993157585759 -0.02235495049505
 1  20.45832248514851  3.56950443764376 -1.00714551085108
 1 -0.65369099419942 -4.66513926332633  2.29979832783278
 1 -1.83474315531553 -4.98545581928193  3.88126876347635
 1 -1.47419143244324 -3.33588206530653  3.56660081328133
 8 -11.56010438473847  3.95561036023602 -0.97764957865787
 1 -12.98438895039504  2.24388562866287 -0.90093069806981

