%nproc=4
%Mem=4GB
# td=(NStates=1) iop(3/107=0140000000,3/108=0140000000) iop(3/107=0140000000,3/108=0140000000) CAM-B3LYP/6-31G(d,p) 

TD

0 1
12 -5.72841434803480  1.28823369766977  0.26671527672767
 6 -5.05479586678668 -2.10600906420642 -0.26724359115912
 6 -3.43102189128913  1.14689497429743  2.85795116841684
 6 -6.16375517121712  4.53207647184718  0.65611582038204
 6 -8.15367113421342  1.05226607730773 -2.23563123662366
 7 -4.38950320362036 -0.22951114291429  1.01782312111211
 6 -4.29222274977498 -1.49911361296130  0.63199554915492
 6 -3.20210333483348 -2.31850515331533  1.50138450215022
 6 -2.94371754275428 -1.31817470837084  2.66001255735574
 6 -3.62123955135514 -0.00059268696870  2.17973255845585
 6 -3.36976001540154 -1.86223966536654  4.02760545994599
 6 -2.04637983118312 -2.74358176747675  0.50793609910991
 6 -1.02930457395740 -3.63443102370237  1.32412600060006
 6  0.27440254075408 -3.82106594729473  0.57524571927193
 8  0.63381344564456 -3.25178249184918 -0.51017725192519
 8  0.95887273297330 -4.69600921822182  1.23053766106611
 7 -4.85550636693669  2.55624500140014  1.42907313901390
 6 -3.99295138493849  2.37662508420842  2.40443104640464
 6 -3.67453695739574  3.69222772497250  3.13520407660766
 6 -4.49970052275228  4.59817134543454  2.54068333963396
 6 -5.27020312451245  3.95805390059006  1.38630472277228
 6 -2.84449981308131  3.89505688148815  4.29680386978698
 6 -4.69079561016102  6.05511293179318  2.94980448524853
 8 -4.01410145814581  6.55035292329233  3.81503540344034
 7 -6.87352115201520  2.49533942974297 -0.78262991929193
 6 -7.00930364516452  3.86064568176818 -0.38862055075508
 6 -7.93683887028703  4.58251497629763 -1.25773988348835
 6 -8.47989744304430  3.62689961986199 -2.06291523592359
 6 -7.89867875837584  2.35754176297630 -1.72115806230623
 6 -8.28037102800280  5.98951886128613 -1.18525803460346
 6 -9.50313467676768  3.89841023922392 -3.17042167496750
 6 -8.72013346704671  4.01711985818582 -4.48430483448345
 7 -6.44708312731273 -0.06941195889589 -1.09392448444845
 6 -7.44819434903490 -0.03701977057706 -2.03777798849885
 6 -7.63691119831983 -1.31163286688669 -2.71967449004900
 6 -6.72585213401340 -2.19076864866487 -2.09493565926593
 6 -5.98020643604360 -1.37082064716472 -1.12447857825783
 6 -8.63792925072507 -1.78703882988299 -3.78802569876988
 6 -6.24926859395940 -3.53521910581058 -1.91773532863286
 8 -6.66363075857586 -4.54332203060306 -2.50878714381438
 6 -5.05208377047705 -3.51593964656466 -0.77577989778978
 6 -5.33751122852285 -4.64646008710871  0.13248692049205
 8 -5.82996876847685 -4.53829283738374  1.32053841724172
 8 -5.02539223742374 -5.79639083548355 -0.37911105570557
 6 -5.43232079627963 -6.87217907120712  0.33624545434543
 6  2.24698567176718 -4.94137525772577  0.66143009740974
 6  3.37071160616062 -4.01059122002200  1.03633153295330
 6  4.04970436063606 -3.20161303140314  0.14667830283028
 6  3.83568790769077 -3.12643758505851 -1.32484198869887
 6  5.22635906170617 -2.35250029762976  0.65927972677268
 6  6.60271514281428 -2.75252817801780  0.02912437983798
 6  7.72619794339434 -1.87450680618062  0.49659535003500
 6  9.13137395869587 -2.11812664626463 -0.08595637813781
 6  9.70575695739574 -3.58252889328933  0.08621516381638
 6  10.07962854195419 -0.97724796219622  0.50495301080108
 6  11.52218952135214 -0.89244885178518 -0.20789955615562
 6  12.29056674527453  0.21650627812781  0.21014786238624
 6  13.58496095189519  0.40914578447845 -0.67111187438744
 6  14.55188348734874 -0.78668807140714 -0.63669782068207
 6  14.29896583618362  1.70696686828683 -0.12159141394139
 6  15.60774496489649  2.06444447264726 -0.83817881288129
 6  16.10895347974797  3.50426517931793 -0.46911752495250
 6  17.39261451055106  4.00326816841684 -1.24128806400640
 6  17.19319190889089  4.07646253795379 -2.79449167336734
 6  17.93429283538354  5.42520778607861 -0.71036049494949
 1 -2.71530725352535  1.13699797519752  3.75170563896390
 1 -6.16425440424042  5.74712009240924  0.78491748344835
 1 -8.84914532173217  1.06123642654265 -3.04915039383938
 1 -3.73711477627763 -3.24545986138614  1.62583064386439
 1 -1.75886301020102 -1.13959162076208  2.57356863296330
 1 -2.81407118621862 -2.86242940414041  4.43433697769777
 1 -2.96618741144114 -1.12884278867887  4.73594562436244
 1 -4.43146565826583 -2.04276335723572  4.07270122062206
 1 -2.37784309800980 -3.26036555385539 -0.33371399519952
 1 -1.46568440084008 -2.02858197449745  0.10347846944694
 1 -0.65968140164016 -3.09320061566157  2.09653387208721
 1 -1.26623134473447 -4.57961509270927  1.70675247324732
 1 -1.76144625842584  3.65941546594660  4.20067597729773
 1 -2.71799278937894  4.61732893889389  4.72578883658366
 1 -3.07423041804180  3.12840383788379  5.26593159915992
 1 -5.36166923082308  6.67999219361936  2.27206252765277
 1 -10.41877101060106  2.96372702980298 -3.17490074177418
 1 -10.21259205710571  4.75336918101810 -2.96198648934893
 1 -9.31521132093209  4.06932534653465 -5.56405160746075
 1 -8.01026053545355  4.89488923432343 -4.52897285228523
 1 -8.14149399839984  2.98265762456246 -4.43154307910791
 1 -8.32470005960596 -1.28763930683068 -4.76187718601860
 1 -8.79695067806781 -2.86861026612661 -3.99145178217822
 1 -9.66804688418842 -1.55810263366337 -3.44410131683168
 1 -4.19456681408141 -3.70935576217622 -1.46694998189819
 1  2.62690382338234 -6.17407535053505  0.89802575947595
 1  1.93728447184719 -4.95920289638964 -0.40859430903090
 1  3.60182230453045 -4.09803908570857  2.05738074567457
 1  2.96534152085209 -3.52240786188619 -1.75529807080708
 1  3.89808442174217 -2.04110767006701 -1.75119759025903
 1  4.72263443744374 -3.57358108730873 -1.80412933883388
 1  4.98440848174817 -1.22697912191219  0.34464634813481
 1  5.35320384768477 -2.39958159055906  1.70575545584558
 1  6.80749827652765 -3.78187137923792  0.17355523952395
 1  6.26031619201920 -2.71787939693969 -1.06119671517152
 1  7.47595652695269 -0.85443876897690  0.14470171567157
 1  7.88024012691269 -1.71999858295830  1.66120050535054
 1  8.90903501280128 -1.89850812601260 -1.16700003810381
 1  8.99461398009801 -4.36465523692369 -0.13547734013401
 1  10.67704704550455 -3.79628383048305 -0.23026313981398
 1  9.70322938433843 -3.83658474997500  1.23882432513251
 1  9.41472062266227 -0.09455372917292  0.36659202300230
 1  10.20797089458946 -1.14755128902890  1.51453099309931
 1  11.85146028732873 -1.79019905180518 -0.00275464866487
 1  11.33608969566957 -0.78989189408941 -1.43543487708771
 1  11.96871790529053  1.26010043924392 -0.16523607880788
 1  12.53680850415041  0.23755494689469  1.10389867006701
 1  13.22440924162416  0.55812024432443 -1.72959519821982
 1  15.01249058735874 -1.04166237893789  0.46096177617762
 1  14.05214078507851 -1.78485750205020 -0.96465278677868
 1  15.38152914131413 -0.57629082728273 -1.42437933043304
 1  13.63813200740074  2.50145476457646 -0.15705749344935
 1  14.66433313361336  1.53127341654165  0.94625183908391
 1  16.34518617441744  1.29865847854785 -0.58752524322432
 1  15.41361694509451  1.81882579537954 -2.00573195289529
 1  15.30627203180318  4.26987236523652 -0.81044304240424
 1  16.44353712381238  3.54741138253825  0.46898679907991
 1  18.19986366776678  3.43005449664966 -1.17664674427443
 1  16.17507822822282  4.61649817871787 -3.01262362216222
 1  18.09605552905291  4.52335184848485 -3.25638024312431
 1  17.07821802200220  3.08355942594259 -3.26016405100510
 1  18.12060810801080  5.37243846134613  0.25678734293429
 1  18.82285980828083  5.60943509570957 -1.42842975737574
 1  17.33222477337734  6.17749725282528 -1.11424548584858
 1 -5.29114441584158 -7.75765519861986 -0.15477901560156
 1 -6.54891932223222 -6.90374746134613  0.52801630913091
 1 -5.09294746334634 -6.58649022462246  1.42893735033503
 8 -7.88294588618862  6.89180568136814 -0.50957874187419
 1 -9.01267956505651  6.38681432633263 -2.08278396119612

