%nproc=4
%Mem=4GB
# td=(NStates=1) iop(3/107=0140000000,3/108=0140000000) iop(3/107=0140000000,3/108=0140000000) CAM-B3LYP/6-31G(d,p) 

TD

0 1
12 -5.63530503710371  1.22869774407441  0.25814441964196
 6 -5.03984437163716 -2.06754521782178 -0.38923579037904
 6 -3.35271406050605  1.17582786758676  2.73938931223122
 6 -6.23392218791879  4.52304556875688  0.66279648844885
 6 -8.02166793389339  1.21943279397940 -2.28149582308231
 7 -4.31595584888489 -0.28451664346435  0.98642998179818
 6 -4.25468899639964 -1.56974067566757  0.66624897449745
 6 -3.16609973447345 -2.31864516731673  1.49035339903990
 6 -2.79410258125813 -1.28568145904590  2.55042159825983
 6 -3.42627005440544 -0.06256888458846  2.05658024322432
 6 -3.36362940234023 -1.65293873527353  3.94736743614361
 6 -1.98324351755176 -2.79427683698370  0.60267557305731
 6 -0.93851549504951 -3.67602518311831  1.19939352735273
 6  0.23694879537954 -4.03248708940894  0.51632982768277
 8  0.47757782208221 -3.67431474507451 -0.66108234243424
 8  1.03959080478048 -4.83829344664466  1.19551415871587
 7 -4.91805262156216  2.57997737463746  1.37121735343534
 6 -3.94094618441844  2.39597701940194  2.36706731003100
 6 -3.82537204090409  3.66554505670567  3.20227078327833
 6 -4.53904445714572  4.57861939023902  2.58036730803080
 6 -5.23322942714271  3.94647274247425  1.47682377467747
 6 -2.80658602170217  3.83411078687869  4.25248943834383
 6 -4.51466799739974  6.09210663116312  2.91181068586859
 8 -3.92291233923392  6.59256714471447  3.76724062396240
 7 -6.84501830173017  2.62698259405941 -0.76159781608161
 6 -6.93719643444344  3.97301691889189 -0.47272896159616
 6 -7.91993718011801  4.59398612341234 -1.23978808830883
 6 -8.43055250855086  3.61376830673067 -2.10003894829483
 6 -7.81458034853485  2.45446145494549 -1.72533848034803
 6 -8.32471546244624  5.94622453185319 -1.16721623042304
 6 -9.42231659495950  3.88316871507151 -3.14438907170717
 6 -8.80280173387339  4.10314846104610 -4.51768817281728
 7 -6.39764818381838 -0.09149416711671 -1.05034012601260
 6 -7.43517304690469 -0.02625869446945 -1.93002721342134
 6 -7.67002450965097 -1.33782548614861 -2.58686120872087
 6 -6.65759530833083 -2.18302787458746 -1.99267543324332
 6 -5.92824123952395 -1.35943950905091 -1.13752988338834
 6 -8.56829228702870 -1.66098622462246 -3.65678257445745
 6 -6.22742640974097 -3.53734931883188 -1.93193674877488
 8 -6.70127452295230 -4.47949564796480 -2.48367463256326
 6 -5.10510907300730 -3.49108716131613 -0.91619393919392
 6 -5.33608108550855 -4.52594803590359  0.19008268006801
 8 -5.71285705730573 -4.33598260636064  1.25163152655266
 8 -5.07305700390039 -5.79956115251525 -0.29958310291029
 6 -5.34726229042904 -6.93013486678668  0.55871770157016
 6  2.35773674687469 -5.09078019821982  0.68091204560456
 6  3.40396493149315 -4.10339049995000  0.96049394919492
 6  3.97556694689469 -3.31632450255026  0.07529116411641
 6  3.77760209910991 -3.17897283858386 -1.46689619411941
 6  5.10985741154115 -2.41470651825183  0.53287708650865
 6  6.54299917121712 -2.88584150935094  0.06182765016502
 6  7.59317464106411 -1.90336969246925  0.57085277577758
 6  9.02070289158916 -1.97148198179818 -0.08314609710971
 6  9.53228961066107 -3.43901454185419  0.11839838213821
 6  10.01094167326733 -0.95090532793279  0.41681419691969
 6  11.33977127952795 -0.83741334823482 -0.20426919311931
 6  12.14814250285028  0.40551517901790  0.28808565616562
 6  13.57493994979498  0.46499136903690 -0.51492625582558
 6  14.45122342134214 -0.80480988358836 -0.21208535943594
 6  14.19094503410341  1.74523069466947 -0.10651990679068
 6  15.45233942434243  2.19971800000000 -0.87346234123412
 6  16.04373695809581  3.64387914071407 -0.50581119431943
 6  17.37355260436044  3.98103594519452 -1.27668160336034
 6  17.16010860056005  4.04964985668567 -2.86607883208321
 6  17.87942734883488  5.37861312661266 -0.85204466336634
 1 -2.66968269106911  1.12617689308931  3.52849331773177
 1 -6.65133311211121  5.58433381378138  0.78390738243824
 1 -8.88363877107711  1.17453775667567 -3.17532301110111
 1 -3.66371743654365 -3.27361267666767  1.96145420622062
 1 -1.63382050595060 -1.22170983258326  2.57129840594059
 1 -2.91567134623462 -2.44148730993099  4.54768831283128
 1 -3.49354014671467 -0.86571647604760  4.79397142694269
 1 -4.27180969266927 -1.93007208810881  3.80883483398340
 1 -2.33892920662066 -3.15503502080208 -0.29123974777478
 1 -1.44153198559856 -2.01786090239024  0.24379250085009
 1 -0.46680211371137 -3.31073236883688  2.32542676137614
 1 -1.47336205780578 -4.53201033223322  1.49834163216322
 1 -1.90026013981398  3.25607513191319  4.08163407310731
 1 -2.73467445754575  4.94581178717872  4.38820507820782
 1 -2.98015101010101  3.31819281678168  5.15152015801580
 1 -5.25940900480048  6.69948414281428  2.27636295769577
 1 -10.19406854035403  3.01136179327933 -3.28432168386839
 1 -9.98778957685769  4.55032887698770 -2.90378066876688
 1 -9.68801860166017  4.28922733673367 -5.36299150145014
 1 -7.98330784018402  4.93493323872387 -4.56851680668067
 1 -8.31796164516452  3.18943830263026 -5.17863778857886
 1 -8.25228281788179 -1.05720626352635 -4.59244024232423
 1 -8.44259524252425 -2.67401080618062 -3.88249088608861
 1 -9.54229430893089 -1.34010083348335 -3.27844475117512
 1 -4.15318267566757 -3.95517034363436 -1.44393768066807
 1  2.62598373137314 -6.13641158415842  0.91906786368637
 1  2.20843158655866 -5.00515749184919 -0.55165861546155
 1  3.75301742404240 -4.20372965476548  1.92507751535153
 1  2.70187517421742 -3.67193281438144 -1.80281282228223
 1  3.97337195049505 -1.98381194049405 -1.82590506100610
 1  4.24202637663766 -3.88771250045004 -2.08668759465947
 1  4.97187722862286 -1.51260768476848 -0.06338445494549
 1  5.13931245854585 -2.25242687508751  1.60559543984398
 1  6.77805533223322 -3.91993518561856  0.30024790879088
 1  6.66789695009501 -2.89950755975598 -0.93191378687869
 1  7.33096202750275 -0.73531685678568  0.49739698519852
 1  7.90276237913791 -2.10802738583858  1.58790317561756
 1  8.98305241454145 -1.79696797199720 -1.14750808890889
 1  9.00834535323532 -4.27184595599560 -0.43653744614461
 1  10.54413375417542 -3.62924712681268 -0.40691080458046
 1  9.70974003540354 -3.65455654715472  1.20079052175218
 1  9.68261741234124  0.09022474867487  0.74410977477748
 1  10.28374847234723 -1.30888742264226  1.55393493349335
 1  11.93293843514351 -1.79511954385438 -0.30125449864987
 1  10.99446553325333 -0.61257416231623 -1.21746307990799
 1  11.51963299679968  1.30537496669667 -0.06025558075808
 1  12.23053787708771  0.55254644604460  1.52815109530953
 1  13.15502230293029  0.69862429472947 -1.48951118981898
 1  14.59172851115111 -0.93603181588159  0.93102878287829
 1  14.20246581758176 -1.66008502480248 -0.51043736523652
 1  15.38902989138914 -0.66718991719172 -0.74974186668667
 1  13.53918211241124  2.53013763286329 -0.30877266496650
 1  14.33930063036304  1.45850613981398  0.91737895179518
 1  16.09225088088809  1.31982059475948 -0.47531402210221
 1  15.07511309470947  2.16761067386739 -2.02117349704970
 1  15.26893829842984  4.33571894989499 -0.67636963506351
 1  16.23766653675368  3.70241688308831  0.62939283968397
 1  18.16239992139214  3.06983847504751 -1.18519759935994
 1  16.44432515291529  4.88345487438744 -3.20930329012901
 1  17.97329325282528  4.21066057935794 -3.39945455055506
 1  16.72556275647565  3.06762783278328 -3.13526156075608
 1  18.21305735293529  5.56808802630263  0.17782944714471
 1  18.66184370667067  5.83000715291529 -1.44648156255626
 1  17.08479002990299  5.98676817991799 -1.07791185248525
 1 -5.05258055945595 -7.71250068316832  0.11125758805881
 1 -6.37502193249325 -6.73843092969297  0.83580708820882
 1 -4.70153832243224 -7.03458503410341  1.45534999159916
 8 -7.82086967856786  6.78613511431143 -0.39868765276528
 1 -9.28953725082508  6.22465811071107 -1.76041172397240

