%nproc=4
%Mem=2GB
# td=(NStates=1) iop(3/107=0140000000,3/108=0140000000) iop(3/107=0140000000,3/108=0140000000) CAM-B3LYP/6-31G(d,p) 

TD

0 1
12 -6.82584515661566  0.77081622572257 -0.06476885738574
 6 -4.59013612011201 -2.01704012581258  0.60692096909691
 6 -4.34721653705371  2.73771540464046  1.25737861946195
 6 -9.04554725942594  3.18514253835384 -0.38400790249025
 6 -9.30545864346435 -1.69096212581258 -0.81646170487049
 7 -4.76389146104610  0.35788518621862  0.76698573067307
 6 -3.95278254385439 -0.82005171197120  0.76510706610661
 6 -2.52358577717772 -0.51943370257026  1.09327138943894
 6 -2.42204217001700  0.99056920572057  1.50298246074607
 6 -3.84438070097010  1.40404048924893  1.05792056675668
 6 -2.28293457915792  1.24402619851985  3.07590215301530
 6 -1.51315006340634 -0.74814737813781  0.05686701300130
 6 -0.18995711401140 -1.13155486208621  0.65450452395240
 6  0.73783486268627 -1.25219245614561 -0.50929910371037
 8  0.67440750885088 -0.79565217771777 -1.70004099429943
 8  1.78283857045705 -1.99574987358736 -0.07301222372237
 7 -6.79895163736374  2.57658802880288  0.47225097299730
 6 -5.61239180008001  3.19116775997600  0.93181947814781
 6 -6.12964717991799  4.71688137293729  1.00393526212621
 6 -7.21532224562456  4.80752684318432  0.48232481578158
 6 -7.87911961586159  3.52163097149715  0.24120895229523
 6 -5.24966988728873  5.79920735123512  1.51837950595059
 6 -8.21749331063106  6.11815873597360  0.19988951265127
 8 -7.84315823202320  7.16684830143014  0.47995585238524
 7 -8.79893344684468  0.75079593879388 -0.40599324842484
 6 -9.45696936933693  2.00762549784978 -0.55934698699870
 6 -10.75961259155916  1.49295916701670 -1.08479426062606
 6 -10.82856721422142  0.17353825822582 -1.22516337183718
 6 -9.54502616591659 -0.32318048124812 -0.77954003070307
 6 -11.84144091939194  2.52466865996600 -1.31628627942794
 6 -12.02603572407241 -0.66731029332933 -1.55617375107511
 6 -12.02360922302230 -0.93578574377438 -3.17328012271227
 7 -6.99537602050205 -1.44578714001400 -0.05054769926993
 6 -8.08960162176218 -2.26161615831583 -0.56082928092809
 6 -7.55521310641064 -3.68292561496150 -0.54391540164016
 6 -6.24335995719572 -3.48808796969697 -0.19560782138214
 6 -5.96285257395740 -2.18268708320832  0.17846403070307
 6 -8.32396091959196 -4.85251262906291 -0.97884069997000
 6 -5.04792099659966 -4.43831963006301 -0.05666764106411
 8 -4.90103185188519 -5.57743828212821 -0.16930642404240
 6 -3.85794952035204 -3.47499805900590  0.41798644584458
 6 -3.36540005090509 -3.73857003250325  1.74104381738174
 8 -3.93616885698570 -3.81025776057606  2.94904357415742
 8 -2.04924659955996 -3.80121642694269  1.58758869806981
 6 -0.96035455755576 -3.89804489458946  2.90555498069807
 6  2.80059195199520 -2.30553573047305 -0.82854409850985
 6  4.03812758015802 -1.36882388348835 -0.57922345464547
 6  5.07128788418842 -0.86916378777878 -1.46079228082808
 6  5.15915989978998 -1.56030916561656 -2.94553153535354
 6  5.97556138073807 -0.02514016691669 -0.87319387788779
 6  7.35389408340834 -0.80122590469047 -0.60718745604561
 6  8.58484104440444  0.26097173177318 -0.20241872237224
 6  9.96068915831583 -0.54646156645665 -0.00026833253325
 6  9.88704622092209 -1.30375919061906  1.54446881568157
 6  10.93061539153915  0.59843469766977 -0.06918207980798
 6  12.44940021052105  0.06448775597560  0.32903121432143
 6  13.54865640824082  1.08996627132713  0.03661656005601
 6  14.92089842504251  0.59448272637264  0.27384204630463
 6  15.04921991009101  0.19483720322032  1.83513343734373
 6  15.96835646404640  1.57184208620862 -0.21952874757476
 6  17.11141061916192  0.79931515591559 -0.30790766466647
 6  18.51947149454946  1.52143933513351 -0.56350649744975
 6  19.86342854395440  0.86222471727173 -0.84207429112911
 6  20.02573237453745  0.16394182448245 -2.18249404060406
 6  21.15436260516052  1.79247066506651 -0.51666676257626
 1 -3.52537317561756  3.56481773277328  1.18403780548055
 1 -9.43106708920892  4.11268035313531 -0.62879651355135
 1 -10.16777926952695 -2.39504990429043 -1.15950877677768
 1 -2.07169968676868 -1.28062568036804  2.04649469776978
 1 -1.85187452605261  1.45168564476448  0.85611206460646
 1 -1.27187857155716  1.06624493889389  3.50009072017202
 1 -2.55733390729073  2.20254883128313  3.13897001480148
 1 -3.32514484698470  0.51245913121312  3.54297016611661
 1 -1.91349036933693 -1.39950122312231 -0.83409119591959
 1 -1.44806997599760 -0.10224169706971 -0.59189898069807
 1  0.37641563986399 -0.34923635693569  1.05781164636464
 1 -0.30235395519552 -2.07170350415042  1.53190342244224
 1 -4.20526505690569  5.85478330623062  0.89262422012201
 1 -5.95136541714171  6.71082375827583  1.50635754185419
 1 -4.66292732093209  5.48575753675367  2.40231800410041
 1 -8.96036905100510  5.90367547674767 -0.84908128392839
 1 -12.25729528312831 -1.41037190469047 -0.93953838103810
 1 -12.91526774177418 -0.10522412261226 -1.27332496889689
 1 -12.98366618971897 -1.42046416181618 -3.49546666376638
 1 -11.90584754855486 -0.07672025052505 -3.82067423692369
 1 -11.38352517691769 -1.46566988398840 -3.38829543694369
 1 -9.02727191049105 -4.83913046864686 -1.93320554855486
 1 -7.47523273787379 -5.62555256785679 -1.21875152705270
 1 -9.02798007800780 -5.31381334253425 -0.24180957145715
 1 -2.89648923032303 -3.31565529042904 -0.19188749554955
 1  2.97271888728873 -3.21219849364936 -0.46904262136214
 1  2.62473676247625 -2.41040695569557 -1.90673090839084
 1  4.24475180288029 -0.90993374177418  0.40338393999400
 1  4.09473253025303 -0.85312878537854 -3.46666678167817
 1  6.41761533993399 -1.27167584298430 -3.53665488938894
 1  4.71847567496750 -2.82745535983598 -3.19965414921492
 1  5.90042046394639  0.82706804420442 -1.73236585378538
 1  5.48221333073307  0.33678922672267  0.09836557315732
 1  7.13559473837384 -1.70424862196220  0.42467418901890
 1  7.65810120852085 -1.43017180748075 -1.53224270017002
 1  8.73566569796980  0.93617421222122 -1.04288707400740
 1  8.34523302140214  0.94535972417242  0.64531023942394
 1  10.26112855995600 -1.73714115781578 -0.92751990959096
 1  9.53968621292129 -2.28743755945595  1.33355171597160
 1  11.21159722912291 -1.03389727092709  2.09337122852285
 1  9.06872008360836 -0.77430865326533  2.35379668476848
 1  11.23464710251025  1.18097085698570 -1.18172534413441
 1  10.29676942354235  1.11425030063006  0.90522440274027
 1  12.79809735193519 -0.41756419591959  1.35978966226623
 1  12.52632478647865 -1.10795901650165 -0.38284128162816
 1  13.10743561356136  1.23551309630963 -1.01669057365736
 1  13.12985503030303  2.15734998629863  0.76395218461846
 1  15.08326975277528 -0.03859137513751 -0.33425161636164
 1  14.75283518341834  1.20786118161816  2.44972774577458
 1  14.71414868836884 -0.73084075597560  1.85907340544054
 1  16.34066109920992  0.22282869976998  1.88661513921392
 1  15.70374150905091  2.19296929032903 -0.82203217791779
 1  16.06367039963996  2.64576411191119  0.28644696789679
 1  17.22942425752575  0.11561473207321  0.41032121882188
 1  16.98368589278928  0.07910607980798 -0.87386876427643
 1  18.34085909300930  2.17060360816082 -1.51844483278328
 1  18.63858385448545  2.18645255215521  0.01415808630863
 1  20.20383294449445  0.07366021222122  0.05304865566557
 1  19.76799511751175  1.06725177477748 -2.80325245044504
 1  21.13113740374038  0.07666586478648 -2.41546567996800
 1  19.38987171417142 -0.59033675207521 -2.17375545024503
 1  21.29398617721772  2.01742132123212  0.55878663226323
 1  21.82145988628863  0.92153873657366 -0.33164587958796
 1  21.53824047694770  2.71268875607561 -1.13980877717772
 1 -0.72101772687269 -5.09172192159216  2.40136848484849
 1 -1.58513819481948 -4.14236150985099  4.52145278187819
 1 -0.12310632393239 -2.78605708280828  3.20108426162616
 8 -11.62788116241624  3.68311311051105 -1.44961677537754
 1 -12.78907941944195  2.06383762386239 -1.57679828482848

