%nproc=4
%Mem=2GB
# td=(NStates=1) iop(3/107=0140000000,3/108=0140000000) iop(3/107=0140000000,3/108=0140000000) CAM-B3LYP/6-31G(d,p) 

TD

0 1
12 -6.75733830593059  0.57766691079108  0.26272389188919
 6 -4.57615472197220 -2.06433485528553  0.37998827582758
 6 -4.25608742414241  2.75228686178618  1.13568645024502
 6 -8.88693139783978  3.17491151525152 -0.24660416211621
 6 -9.16950504810481 -1.80546357595760 -0.74840489918992
 7 -4.76599167106711  0.45038443614361  0.66099513161316
 6 -3.90662792839284 -0.76270597739774  0.70388094349435
 6 -2.57973139173917 -0.60440219941994  1.03665572787279
 6 -2.46505647144714  0.91655180398040  1.27762992549255
 6 -3.96829309220922  1.31494157935794  1.14041881658166
 6 -2.07743402910291  1.17450924682468  2.85857041984198
 6 -1.57698644704470 -0.99618218161816 -0.16232490619062
 6 -0.20968908720872 -1.28486019261926  0.28432750625062
 6  0.91038211741174 -1.34177141404140 -0.80484865866587
 8  0.80649071717172 -0.71470408290829 -1.87279827002700
 8  1.82320260686069 -2.08904920352035 -0.39813473597360
 7 -6.55766750895090  2.63943431343134  0.29326307420742
 6 -5.55313587448745  3.25898454165417  0.75061135733573
 6 -5.76765098029803  4.72776246104610  0.50773564216422
 6 -7.18048876227623  4.86700279077908  0.32005858915892
 6 -7.74773647754775  3.63584239263926  0.09956478787879
 6 -4.96103102340234  5.77372480298030  1.06818448644864
 6 -8.06715827712771  6.14286120622062  0.33478300200020
 8 -7.51307522372237  7.20210182678268  0.60695855265527
 7 -8.61766532003200  0.80019087828783 -0.45671832093209
 6 -9.40714438683868  1.89047378267827 -0.51870292259226
 6 -10.83343997429743  1.64553442454245 -1.02958874007401
 6 -10.92704706220622  0.30112101650165 -1.17598845434543
 6 -9.59797146044605 -0.29280744394439 -0.72808488518852
 6 -11.79092586788679  2.48117431053105 -1.30270492129213
 6 -12.14987810831083 -0.64162772507251 -1.42259039273927
 6 -12.50695755785579 -0.59240140534053 -2.88362115681568
 7 -6.82091857475748 -1.38519108040804  0.01550890639064
 6 -8.02891555315531 -2.29440943764376 -0.30930412841284
 6 -7.63746133123312 -3.65467278967897 -0.33249425952595
 6 -6.31681730293029 -3.70537969886989  0.00184192359236
 6 -5.90930721942194 -2.27959677417742  0.04973115741574
 6 -8.59463798729873 -4.76471384918492 -0.68917173307331
 6 -5.04345054955496 -4.44540033813381  0.07508553425343
 8 -4.93424517321732 -5.63221375967597  0.07797830443044
 6 -4.03390711611161 -3.47852841204120  0.44464911211121
 6 -3.22176568746875 -3.87735391089109  1.78834854785479
 8 -3.87312255235524 -4.06283301810181  2.78307697749775
 8 -1.73938561346135 -3.63834013931393  1.83620355955596
 6 -1.02955147724772 -3.97451254135414  3.09040346554655
 6  2.89645153795380 -2.21074625152515 -1.16841808590859
 6  4.06714048144815 -1.33282028312831 -0.76452198449845
 6  5.05222597799780 -0.84364123552355 -1.73832003360336
 6  5.25047903170317 -1.51008414311431 -3.12217920012001
 6  6.06644046864687  0.17563991109111 -1.27504406290629
 6  7.32339103310331 -0.59894567666767 -0.67004374167417
 6  8.42361492179218  0.35527116171617 -0.07875635613561
 6  9.77070015941594 -0.47727464776478  0.23481517581758
 6  9.59169668596860 -1.37400621532153  1.56716108490849
 6  10.92952528252825  0.62902775697570  0.25786062446245
 6  12.23182845334533 -0.05200389318932  0.16768507970797
 6  13.34288583118312  1.03583085778578  0.15728862726273
 6  14.73552988818882  0.30502378047805  0.13420808290829
 6  14.87557254535453 -0.46637891839184  1.38758868286829
 6  15.78556818521852  1.42377727972797 -0.01146794149415
 6  17.12594207230723  0.64788001240124 -0.20085695959596
 6  18.37777732513251  1.70108729992999 -0.44080422722272
 6  19.80991319241924  1.22893138793879 -0.42709279297930
 6  20.01347114841484  0.68416384668467 -1.79789558075808
 6  21.09706687558756  2.26421783978398 -0.22765786168617
 1 -3.49342998129813  3.29331058205821  1.34946434813481
 1 -9.98482246474647  3.83497258235824 -0.07291092499250
 1 -10.10396288788879 -2.51286168546855 -1.10341316721672
 1 -2.39631214801480 -1.21069868766877  1.78543859215922
 1 -2.00053939253925  1.56452692889289  0.80490694409441
 1 -1.34464584828483  0.78886720112011  3.16693740484048
 1 -2.50707888178818  2.47350592699270  3.17692381018102
 1 -2.70475280778078  0.80914880018002  3.46811268036804
 1 -2.36402542284228 -2.00819209220922 -0.64298208500850
 1 -1.67803297229723 -0.24768624152415 -1.43432322312231
 1  0.11526952525252 -0.55541697499750  1.19700556575658
 1 -0.15017873767377 -2.30661699549955  1.01889212131213
 1 -4.01982651305131  6.03706153405340  0.35994095179518
 1 -5.78274855545555  6.84605728162816  1.09436634273427
 1 -4.62411343954395  5.63346230723072  2.00107788008801
 1 -9.14949796389639  5.98928403760376  0.39126275047505
 1 -11.69941949554955 -1.88411927942794 -0.77323175037504
 1 -12.73601981698170 -0.22440604080408 -0.67788542494249
 1 -13.43223104620462 -1.41225334073407 -2.75752286938694
 1 -12.83441040484048  0.45641306280628 -2.97964013351335
 1 -11.66859368376838 -0.87980129712971 -3.58846545394539
 1 -8.98535771907191 -4.48424498009801 -1.83661588958896
 1 -7.85132034663466 -5.69082909550955 -0.54505415731573
 1 -9.67361464146415 -4.90043200440044 -0.06329171967197
 1 -3.17391697309731 -3.69830355525553 -0.49481778857886
 1  3.05738735413541 -3.27214448824882 -1.23454917201720
 1  2.79017330613061 -1.92765868086809 -2.47664790009001
 1  4.01283861156116 -0.58367111551155  0.10876447804780
 1  4.45312836983698 -0.74899837233723 -3.78952906790679
 1  6.21561513991399 -1.22615129052905 -3.73769499339934
 1  4.84697852525253 -2.65863847814781 -3.02408659245925
 1  6.31849227112711  1.01991732913291 -2.35305792299230
 1  5.91728683808381  1.19033458125813 -0.39237350075007
 1  6.98855003390339 -1.57027522462246 -0.04584286268627
 1  7.55025042344234 -1.40043883418342 -1.49764924082408
 1  8.52018414981498  1.15759635443544 -0.79901268656866
 1  7.83754225232523  1.06333152135213  0.86225193359336
 1  9.86731917901790 -1.24063150685068 -0.76307346494649
 1  8.52744498879888 -2.08499731543154  1.69101746254625
 1  10.32655872527253 -1.93689757095710  1.62656454785479
 1  9.38957216881688 -0.45493671607161  2.41445275037504
 1  10.67464110191019  1.43971673157316 -0.43670084168417
 1  10.73113285988599  1.34029290489049  1.25271915221522
 1  12.18617615981598 -0.86071851135113  0.98455213851385
 1  12.47916007000700 -0.48467668826883 -0.71634463196320
 1  13.22590746074608  1.50314985998600 -0.81361026562656
 1  13.16445849064906  1.50911516281628  1.04697048644864
 1  14.73888531433144 -0.47964548054806 -0.70617880908091
 1  14.85792569246925  0.03291368686869  2.18652142514251
 1  13.94121139463946 -1.21164883678368  1.75809330743074
 1  15.50877791089109 -0.92592617571757  1.81780825852585
 1  15.54142527742774  2.08801879527953 -1.04978495319532
 1  15.73978801140114  2.00729026452645  0.97438576177618
 1  17.39855117021702 -0.14249107850785  0.39285947264726
 1  17.03695121932193  0.00430860006001 -1.12029340674067
 1  18.41572657975798  2.19395594339434 -1.47755074337434
 1  18.17113710981098  2.58523243014301  0.35801247174717
 1  19.97717027822782  0.32810565676568  0.25861921272127
 1  20.26397471547154  1.56391144074407 -2.60369249444945
 1  21.01098538853885 -0.01819362116212 -1.63621775517552
 1  19.13416614361436 -0.25476319471947 -1.99737781248125
 1  20.43219999859986  2.75860543964396  0.90237099069907
 1  22.11681942224222  1.61006758945895 -0.11280399539954
 1  21.57412406530653  3.12579006620662 -1.08746354265427
 1  0.26410078497850 -4.59551230063006  2.73447179517952
 1 -1.61267094809481 -4.96994426812681  3.98038867546755
 1 -1.16532054535454 -2.79716819391939  3.78137229042904
 8 -11.53319169346935  3.69705450465046 -1.16579839353935
 1 -12.57904841634164  2.20109134923492 -1.52563316831683

