%nproc=4
%Mem=4GB
# td=(NStates=1) iop(3/107=0140000000,3/108=0140000000) iop(3/107=0140000000,3/108=0140000000) CAM-B3LYP/6-31G(d,p) 

TD

0 1
12 -5.67473898049805  1.22419729402940  0.22650125532553
 6 -4.95534592179218 -2.14282274557456 -0.32425929272927
 6 -3.56886567566757  1.13669395419542  2.77026239953995
 6 -6.22411120682068  4.57606087028703  0.62161237003700
 6 -7.93257902500250  1.19022987368737 -2.45260293379338
 7 -4.41655590889089 -0.32149034083408  1.19234057285729
 6 -4.27879140664066 -1.63513721532153  0.79646199579958
 6 -3.20879400390039 -2.31852515531553  1.50249461316132
 6 -2.86377954895490 -1.40989388028803  2.61023757985799
 6 -3.62919034643464 -0.05021764946495  2.23061764696470
 6 -3.27989102850285 -1.77807124852485  4.01079377877788
 6 -1.99921511471147 -2.60703811311131  0.61770707620762
 6 -1.04073571707171 -3.54604218481848  1.46594018201820
 6  0.27311241174117 -3.82226606730673  0.60002819751975
 8  0.39895996029603 -3.39160647424742 -0.45438167236724
 8  1.12651949764976 -4.65488510581058  1.18772337963796
 7 -4.99597041334133  2.56414579147915  1.51074130583058
 6 -4.06383847364736  2.35698312001200  2.49620022332233
 6 -3.82262176587659  3.69084758695870  3.27102765896590
 6 -4.57442799549955  4.61697322562256  2.54341361266127
 6 -5.26535263946395  3.95009310451045  1.44669076137614
 6 -2.88225358845885  3.80580795659566  4.40835502490249
 6 -4.79816634723472  5.99123654415441  3.08497800260026
 8 -4.01520156815682  6.49914780278028  3.86769066896690
 7 -6.90330413031303  2.59508940474047 -0.67618927522752
 6 -7.01739445424542  3.92794241144114 -0.33034472317232
 6 -7.88699388578858  4.59208593339334 -1.22299640914091
 6 -8.44001345464546  3.54568149804981 -2.07567651205121
 6 -7.76264515501550  2.36647265606561 -1.73262920942094
 6 -8.35857884878488  5.96120603000300 -1.18964847364736
 6 -9.35364972827283  3.71087148534853 -3.25740037283728
 6 -8.60987244094409  3.91976012221222 -4.62759916391639
 7 -6.31811023002300 -0.12486750445044 -1.15019011101110
 6 -7.34741427102710 -0.03497956655666 -2.10331454215422
 6 -7.52990049724973 -1.29445114871487 -2.76228875147515
 6 -6.63552310111011 -2.19540911271127 -2.05057122282228
 6 -5.99621803720372 -1.43810737583758 -1.03512964336434
 6 -8.61963742154215 -1.58149827582758 -3.74673156935694
 6 -6.17402106920692 -3.52368795269527 -2.02873642874287
 8 -6.54699909540954 -4.51405910431043 -2.55742200730073
 6 -5.07009557165717 -3.61269932253225 -0.87833015281528
 6 -5.25786326372637 -4.66704214531453  0.20441411321132
 8 -5.77821359295930 -4.37496650475048  1.27748411181118
 8 -5.04452415061506 -5.87304850125012 -0.31170431503150
 6 -5.31142870707071 -6.94158601190119  0.48989081888189
 6  2.34455542874287 -5.05600672087209  0.42343629802980
 6  3.43403793879388 -4.01492165306531  0.87605550535053
 6  3.94341373157316 -3.02586545664566  0.07010064506451
 6  3.74064840374037 -3.09494443574357 -1.32913241774177
 6  5.14628105390539 -2.27963301090109  0.55298909770977
 6  6.49979485078508 -2.57885081028103 -0.03329186178618
 6  7.56705202880288 -1.61210056555656  0.50587627812781
 6  8.99529035033503 -1.94435926952695 -0.13519130163016
 6  9.38387476917692 -3.35149578997900  0.17382392469247
 6  10.00977155625563 -0.92034227162716  0.40646316181618
 6  11.30666796919692 -0.79687929482948 -0.28319708590859
 6  12.23794148274827  0.36098072557256  0.12061890949095
 6  13.48425088088809  0.42451732163216 -0.53577834103410
 6  14.57945624462446 -0.61232063466347 -0.26183033393339
 6  14.25921186078608  1.78991516311631 -0.29370862566257
 6  15.47080127052705  2.03330135833583 -0.98631362636264
 6  16.10938352275227  3.28342309510951 -0.57103771697170
 6  17.35770101920192  3.72696053765377 -1.30549448464847
 6  17.25270786048605  4.02859775147515 -2.84891711591159
 6  18.14305371147115  4.93808907420742 -0.69440889978998
 1 -2.82727845064506  1.12391666706671  3.62433290169017
 1 -6.49045702450245  5.66413179357936  0.81075006670667
 1 -8.40774118131813  1.30480078297830 -3.41396687548755
 1 -3.63494455925593 -3.29714502990299  1.89723778457846
 1 -1.73790091399140 -1.17611527312731  2.46771804790479
 1 -2.80214999409941 -2.62633579477948  3.97950149414942
 1 -2.96412720542054 -1.07598750315031  4.67436946674667
 1 -4.27844035573557 -1.97424650555055  4.10501445194519
 1 -2.24086940064006 -3.10422994029403 -0.11683230703070
 1 -1.68848668106811 -1.72687180348035  0.50083820542054
 1 -0.78273370687069 -2.87522881848185  2.28212243094309
 1 -1.48556327792779 -4.42907003820382  1.65324712271227
 1 -1.89451956575658  3.37280680508051  3.98956486618662
 1 -2.74971596169617  4.68354556055606  4.61806806450645
 1 -3.34433742874287  3.05444644214421  5.12594760076008
 1 -5.59837290119012  6.67155134953495  2.52949827122712
 1 -10.11541067456746  2.91691234833483 -3.18762201390139
 1 -9.97670846874687  4.78061190529053 -3.23971426212621
 1 -9.32657245704570  4.10001841584159 -5.47631283358336
 1 -7.71233074247425  4.74581432683268 -4.44099405440544
 1 -8.15701555055506  2.95979533833383 -4.83869379417942
 1 -8.37555514511451 -1.20604114701470 -4.63276427472747
 1 -8.75548653165317 -2.68150155525553 -4.09470210721072
 1 -9.54032411191119 -1.36006282968297 -3.42653956065607
 1 -3.96724408180818 -4.01989681628163 -1.34559784668467
 1  2.55784691769177 -6.15001294429443  0.88905486238624
 1  2.12002274567457 -5.01594857095710 -0.63595704530453
 1  3.87192931523152 -3.96206548834884  1.91565657325733
 1  2.84331931863186 -3.79760538163816 -1.76033857485748
 1  3.76736134943494 -2.09671323062306 -1.92414488498850
 1  4.61256343034303 -3.57074080328033 -1.95667459335934
 1  5.00923096399640 -1.13881030503050  0.22320420392039
 1  5.08425695299530 -2.31968360076008  1.66126100640064
 1  6.66203373007301 -3.66757995009501 -0.08910102610261
 1  6.34788494889489 -2.54524213321332 -1.28803939943994
 1  7.17015594689469 -0.63921724682468  0.38996624212421
 1  7.58963106600660 -1.89767635073507  1.62700708600860
 1  9.06310041934193 -1.74955323052305 -1.14263760186019
 1  8.60336485518552 -4.15651442284228 -0.10054384678468
 1  10.19631897269727 -3.59027322942294 -0.29162927642764
 1  9.49635869726973 -3.51040213171317  1.25605604830483
 1  9.29717886848685  0.07083280948095  0.14272963676368
 1  10.04933503100310 -0.86108264216422  1.54274381438144
 1  11.63261840314031 -1.75714574647465 -0.17233160636064
 1  11.13140922762276 -0.70595350025003 -1.37523885748575
 1  11.64442547604761  1.25857028622862 -0.12340189538954
 1  12.43102792609261  0.36021721312131  1.12961124132413
 1  13.33841064176418  0.25805023732373 -1.66806904560456
 1  15.21793113141314 -0.28927714041404  0.68338401840184
 1  14.12533810481048 -1.81259027532753 -0.27458377987799
 1  15.48086907530753 -0.60474367256726 -1.11360825332533
 1  13.56895508970897  2.68331295039504 -0.61439322702270
 1  14.33177987828783  1.73716400560056  0.68351556545655
 1  16.21990364616462  1.12900151285128 -0.82842933363336
 1  15.32892847624763  2.23790770357036 -2.02787416711671
 1  15.41295269986999  4.22154753275328 -0.74375637373737
 1  16.35410818091809  3.35458209960996  0.62616251665167
 1  18.11593527492749  2.80018150935094 -1.34842392199220
 1  16.45064578497850  4.79852638153815 -3.02828518831883
 1  18.04784070757076  4.76546605990599 -3.14192879797980
 1  16.96836703690369  3.06117718771877 -3.27857589218922
 1  18.28646469366937  4.52243346084609  0.32754441864186
 1  19.17409493179318  5.37255140734073 -1.11468838323832
 1  17.51398294919492  5.83148265136514 -0.67224128542854
 1 -4.88867416881688 -7.89263869696970  0.02088855115512
 1 -6.52788721902190 -7.15750283688369  0.64909841734173
 1 -4.73569173777378 -6.87230880648065  1.55771022762276
 8 -7.72866045764576  6.87695419621962 -0.55621340534053
 1 -9.10687898499850  6.02196784168417 -2.06660234303430

