%nproc=4
%Mem=2GB
# td=(NStates=1) iop(3/107=0140000000,3/108=0140000000) iop(3/107=0140000000,3/108=0140000000) CAM-B3LYP/6-31G(d,p) 

TD

0 1
12 -6.71390396249625  0.56750589468947  0.04594221372137
 6 -4.50037714421442 -2.04146256805681  0.40002027902790
 6 -4.15046686208621  2.74207584068407  0.80086296789679
 6 -9.05977868256826  3.14428845294529  0.03798429672967
 6 -9.31516961456146 -1.80651368096810 -0.78377843654365
 7 -4.63837890979098  0.38653805150515  0.60344937703770
 6 -3.99132639823982 -0.81409111591159  0.57591814721472
 6 -2.37367078567857 -0.56808856805681  0.88314037633763
 6 -2.35492545834584  0.95984613341334  1.10195235773577
 6 -3.77139340224022  1.55775586078608  0.76351112581258
 6 -2.02761904760476  1.26545834173417  2.62640720352035
 6 -1.53254200260026 -1.08291085448545 -0.33820249394940
 6 -0.00552867116712 -0.97291899849985  0.03466253975398
 6  0.90024110331033 -1.36195343224322 -0.95648382218222
 8  0.60813088118812 -1.26605921842184 -2.15613660386039
 8  1.98260854745475 -2.01543184178418 -0.46515143764376
 7 -6.61287302950295  2.66808717871787  0.37614136203620
 6 -5.52429299019902  3.28138678187819  0.57375367156716
 6 -5.93054726992699  4.83578326312631  0.69691456005601
 6 -7.23244395779578  4.90170626112611  0.61370795409541
 6 -7.76043774767477  3.54349315771577  0.28303313471347
 6 -4.99622454275428  5.80107753825382  0.96037370537054
 6 -8.04853641494149  6.09107602770277  0.37971749544954
 8 -7.81726564276428  7.19200081668167  0.56254411121112
 7 -8.88968252175217  0.65482634183418 -0.43711636073607
 6 -9.54496816921692  1.72956769206921 -0.36201725402540
 6 -10.99583621392139  1.49529940104010 -0.68202398359836
 6 -11.05251960946095  0.10872177657766 -0.87695855135514
 6 -9.60130179347935 -0.37898606180618 -0.70258233493349
 6 -12.03826060136014  2.41899809290929 -0.60012466326633
 6 -12.05527864836484 -0.84096765906591 -1.21242937663766
 6 -12.05878274037404 -0.73757592279228 -2.67580037473747
 7 -6.97800428332833 -1.40410297159716 -0.19602224672467
 6 -8.02904556615661 -2.25453545024502 -0.40516371437144
 6 -7.66005359045905 -3.59384670707071 -0.32179318941894
 6 -6.24272989418942 -3.61306046694669 -0.07002526312631
 6 -5.92372866156616 -2.23059187368737 -0.00423423912391
 6 -8.64458298179818 -4.81150852865287 -0.77720053595359
 6 -5.06617282178218 -4.40413621172117  0.07333535923592
 8 -4.79778152685268 -5.60349088738874  0.19067957455746
 6 -3.86219994539454 -3.36270682988299  0.39265391259126
 6 -3.34312782368237 -3.51199737523752  1.95212492549255
 8 -3.85143038313831 -3.87411414621462  2.89928859865987
 8 -2.02112378727873 -3.38091439673967  2.08206814601460
 6 -1.29008753085309 -3.79272436253625  3.15524995019502
 6  2.95810770357036 -2.08149332623262 -1.51755299939994
 6  4.03275704310431 -0.99762676377638 -1.20926645894589
 6  5.12282303770377 -0.94803167456746 -2.02481868346835
 6  5.40264424822482 -1.93398653335334 -3.26444342654265
 6  6.21046487108711  0.05836818391839 -1.74407096559656
 6  7.40082877687769 -0.68754453655366 -1.06162289958996
 6  8.53426598689869  0.35734136873687 -0.86151463196320
 6  9.82122521192119 -0.28868578887889 -0.22562086778678
 6  9.48876639293929 -0.57461627632763  1.07325169396940
 6  11.00191252125212  0.65891074527453 -0.20104526612661
 6  12.31528679917992 -0.00698939173917  0.22174048524853
 6  13.44037558015802  1.05982325702570  0.30358325672567
 6  14.72942927812781  0.41301457955796  0.74909957205721
 6  14.90334532263226  0.04588230773077  2.28365828982898
 6  16.04400402880288  1.35536043804380  0.50203340864086
 6  17.29371884998500  0.65209043344334  0.27665079117912
 6  18.34564411181118  1.67516470767077 -0.36496664346435
 6  19.81663386448645  1.05268376317632 -0.14611469516952
 6  20.22435223652365 -0.56593116281628 -1.08921471267127
 6  20.71277844674468  2.12463388138814 -0.44980007590759
 1 -3.53471410971097  3.30719197019702  0.95989539123912
 1 -9.83894787728773  3.86358544364436  0.10910727682768
 1 -10.07114960656066 -2.98256865616562 -0.98690151605160
 1 -1.97306982378238 -1.14655227302730  1.96105615391539
 1 -1.72994233283328  1.58227870407041  0.59334578797880
 1 -0.96288767246725  0.90835915031503  2.93702441354136
 1 -2.45565373927393  2.29135771217122  2.80613673147315
 1 -2.71212354485449  0.61804969026903  3.19755562466247
 1 -1.80762978327833 -2.21258253125313 -0.53780156695670
 1 -1.70075524452445 -0.59204067696770 -1.52415220602060
 1  0.11486948524852  0.25805437213721  0.47370323552355
 1 -0.04793851365137 -1.45634196799680  0.95598583068307
 1 -4.16162069246925  5.69560738863886  0.38858381608161
 1 -5.37234751535153  6.96501917781778  0.99655656175618
 1 -4.37494852305231  5.53973293429343  2.00805857815782
 1 -9.04983799789979  5.88264337353735  0.12121574577458
 1 -12.16251580518052 -1.82700356785679 -0.58344277147715
 1 -13.15063127812781 -0.58686228642864 -0.80826846324632
 1 -12.59318714181418 -1.17739985538554 -3.18744586168617
 1 -12.08582554635464 -0.19609218771877 -2.78081025052505
 1 -11.33432025642564 -1.40739405640564 -2.97586419381938
 1 -9.74483366666667 -4.65916247184719 -1.27123935193519
 1 -8.21757697229723 -5.93378339093909 -1.23361301320132
 1 -8.94975225522552 -5.09125108630863  0.51655626512651
 1 -2.91346092749275 -3.64511823672367 -0.45750405720572
 1  3.34310592599260 -3.07471474527453 -1.07734345144514
 1  2.50458474727473 -2.47958387338734 -2.49280951625163
 1  3.62744007170717 -0.48006075447545 -0.46470286868687
 1  4.57230028702870 -1.62402587508751 -3.78257837283728
 1  6.09651322972297 -1.68783745914591 -3.78138936283628
 1  5.51501532893289 -2.94780739503950 -3.27306148994900
 1  6.50535095699570  0.67010234763476 -2.63421603880388
 1  5.71865697509751  0.83260880868087 -0.94008827222722
 1  6.92910408930893 -0.91981017811781 -0.08387666606661
 1  7.64373977237724 -1.56475526582658 -1.70604007990799
 1  8.92546467786779  0.91701229602960 -2.00104288958896
 1  7.84370286838684  1.16795198339834 -0.34490878247825
 1  9.81265371247125 -1.12087953165317 -0.87985514311431
 1  8.69714195849585 -1.13078189388939  1.21290965176518
 1  10.37258332773277 -0.66034991619162  1.62726461786179
 1  9.13338655025503  0.09149792739274  1.71894319941994
 1  11.11363500130013  1.36337909780978 -1.14688185978598
 1  10.80451019761976  1.62458133373337  0.44264814511451
 1  12.16777431963196 -0.40304274377438  1.31471515481548
 1  12.28656081008101 -0.89723794439444 -0.59463246074608
 1  13.15511038103810  1.61434097909791 -0.61580048464846
 1  13.19531157595759  1.87612186348635  1.15005079447945
 1  15.42401382718272 -0.13868138413841 -0.19035722692269
 1  14.74296419631963  1.05192558805880  2.76141891489149
 1  13.89722699619962 -0.49420709260926  2.73774127222722
 1  15.67423445654565 -0.61142472557256  2.39447592529253
 1  15.86213734863486  1.82310230363036 -0.28513848854885
 1  15.92607664026403  1.98093762926293  1.40475879907991
 1  17.57762907800780  0.09631280188019  1.12013219991999
 1  17.26287381158116 -0.41352318311831 -0.22760413781378
 1  18.06079108620862  2.03095964376438 -1.04056704500450
 1  18.35524552065207  2.67576148304830 -0.01309463896390
 1  19.87709027022703  0.66673952015202  1.11030438123813
 1  20.11252957095709 -0.13382833323333 -2.36711883708371
 1  21.33696798679868 -1.20147194899490 -0.88139227262726
 1  19.50615334233423 -1.42534025242524 -0.73659173387339
 1  20.60159693829383  3.32164174327433  0.27644839843984
 1  21.73177091739174  1.78216479917992 -0.43488620362036
 1  20.52754940784078  2.51466895409541 -1.55812060836084
 1 -0.38371399649965 -3.60387313671367  2.45604395239524
 1 -1.60925060606061 -4.38960623432343  3.96684732133213
 1 -1.22221623492349 -3.04317279437944  3.66592074527453
 8 -11.78953732803280  3.65046984618462 -0.61969378307831
 1 -13.20191070257026  2.03709494959496 -0.41981258625862

