%nproc=4
%Mem=2GB
# td=(NStates=1) iop(3/107=0140000000,3/108=0140000000) iop(3/107=0140000000,3/108=0140000000) CAM-B3LYP/6-31G(d,p) 

TD

0 1
12 -6.52844541664166  0.68990813491349  0.08926654615462
 6 -4.51117822432243 -2.12036045784578  0.34969524652465
 6 -4.04040585598560  2.68651028412841  1.07548042964296
 6 -8.73929663436344  3.32731675577558 -0.27974747644764
 6 -9.34300239783978 -1.60425345494549 -0.73376343504350
 7 -4.54749982188219  0.26967636533653  0.55845487758776
 6 -3.92049931553155 -0.89080878767877  0.52371292669267
 6 -2.50876429502950 -0.82005376457646  0.85370743304330
 6 -2.24267423322332  0.70301044984498  1.14847701020102
 6 -3.64495075797580  1.28925901110111  0.93609838453845
 6 -1.73474976067607  1.20787258315832  2.55819038183818
 6 -1.56226497489749 -1.49008157155716 -0.17783645734573
 6 -0.14898301660166 -1.89948165476548  0.35426449995000
 6  0.88555963516352 -1.83059029592959 -0.74138231203120
 8  0.94190425852585 -1.23607622012201 -1.79135012521252
 8  1.87279756635664 -2.72402270087009 -0.27806272877288
 7 -6.26561830403040  2.72258262826283  0.04438818671867
 6 -5.31270183108311  3.26567521072107  0.62664896109611
 6 -5.47613182838284  4.78424810961096  0.81226609520952
 6 -6.74797551095110  4.85959204970497  0.37884446774677
 6 -7.38314001790179  3.75774458285829 -0.10905607420742
 6 -4.50363528382838  5.66722415291529  1.16216388438844
 6 -7.32072363366337  6.19566648674867  0.07711723542354
 8 -6.93814773097310  7.20236185278528  0.54479233603360
 7 -8.70527408090809  0.87530839003900 -0.29534218331833
 6 -9.28159183158316  2.03441817711771 -0.45027607990799
 6 -10.60558718901890  1.80477034813481 -0.96973275447545
 6 -10.82674703220322  0.51937284168417 -1.02048290379038
 6 -9.57308897219722 -0.22616077927793 -0.68284036073607
 6 -11.57607438273827  2.98029422252225 -1.07234188498850
 6 -12.13070619111911 -0.26156971927193 -1.34207234093409
 6 -12.01719858195820 -0.59799196439644 -2.85193798849885
 7 -6.83665014791479 -1.34375693699370 -0.14157680218022
 6 -8.21121378297830 -2.06075607230723 -0.27507070507051
 6 -7.80751833693369 -3.52690001240124 -0.36604761486149
 6 -6.43014863606361 -3.62685184608461 -0.12170043064306
 6 -5.94824111281128 -2.29095791029103  0.03826001030103
 6 -8.64190271377138 -4.61788916671667 -0.47456027192719
 6 -5.34988119261926 -4.54381017911791  0.21073909960996
 8 -5.24873662236224 -5.74211474977498  0.06364687128713
 6 -4.09205293069307 -3.63529408860886  0.46371101830183
 6 -3.49009252015201 -3.90687686318632  1.89392910591059
 8 -4.11666690679068 -3.97372410721072  2.92032070187019
 8 -2.07392906780678 -3.83551985728573  1.86283622282228
 6 -1.62761128322832 -4.35727081718172  3.03503792899290
 6  2.93063495629563 -2.83598877577758 -1.03963520762076
 6  3.82142590999100 -1.75203220432043 -0.82222775507551
 6  4.94633538893889 -1.43151002240224 -1.66986318791879
 6  5.21075505930593 -2.03170630533053 -3.07074405660566
 6  6.00656448104811 -0.41928958185819 -1.31329788828883
 6  7.24368306230623 -1.11059684178418 -0.95634237153715
 6  8.28774133443344 -0.00087445284528 -0.55085356585659
 6  9.63147623702370 -0.40416733703370  0.18343003730373
 6  9.46995451175117 -1.03690250495050  1.82318668746875
 6  10.66597892789279  0.71076593079308  0.14965980438044
 6  12.07915318581858  0.33098440564056  0.32794110531053
 6  13.07071861446145  1.37762503720372  0.27037993639364
 6  14.44170050525053  0.63984726282628  0.43256791889189
 6  14.76169115721572 -0.14974725522552  1.86894681868187
 6  15.59041867026703  1.74746964896490  0.13951715701570
 6  16.99777925602560  1.25230045444544 -0.30996787068707
 6  18.16506605400540  2.29003619481948 -0.31673181998200
 6  19.46399860096010  1.75792428722872 -0.46716680038004
 6  19.70527032833283  1.04780021032103 -1.76685247644764
 6  20.36828399729973  2.82103352135214 -0.49521461736174
 1 -3.25129576787679  3.49972122312231  1.51534093579358
 1 -9.48554253675367  4.17212629772977 -0.81632526642664
 1 -10.31807429902990 -2.14562496179618 -1.18209103500350
 1 -2.54994751155115 -1.24441205900590  1.87921797009701
 1 -1.55373471207121  1.27185766196620  0.35572202560256
 1 -0.89560094379438  0.90534884928493  2.58287899899990
 1 -1.37752592649265  2.10752932933293  2.58618473627363
 1 -2.64776710921092  1.05155304060406  3.34822069116912
 1 -2.09912893319332 -2.24641591459146 -0.61002878967897
 1 -1.40809597859786 -0.71007248014801 -0.93028281908191
 1  0.10064806310631 -1.08173960726073  1.08557442264226
 1 -0.39587330713071 -2.91988832263226  1.02215244734473
 1 -3.70451498189819  5.70222805070507  0.47881283898390
 1 -5.25329561016102  6.53966664256426  0.77374428052805
 1 -4.25394642284228  5.90194915591559  2.26852462476248
 1 -8.29864287838784  6.37047215641564 -0.41235761156116
 1 -12.26673622722272 -1.13941480898090 -0.60369479667967
 1 -13.08813502850285  0.36223262306231 -1.09115675207521
 1 -12.99388721182118 -1.49931204660466 -2.90967808490849
 1 -12.24718168196820  0.58254567606761 -3.14415658515852
 1 -11.16910373477348 -1.01288460546055 -3.03778038543854
 1 -9.35312449574957 -4.25909246484649 -1.28866109410941
 1 -8.11926714131413 -5.42823283588359 -0.79061871377138
 1 -9.03289056905691 -4.71533349454945  0.70840545004500
 1 -3.43709329072907 -3.61219494439444 -0.32765107190719
 1  3.46886850225023 -4.06757403120312 -0.63158887598760
 1  2.67669195799580 -2.61863777877788 -2.24769500480048
 1  3.95497282498250 -1.39092184058406  0.24028763036304
 1  4.48491154815482 -1.76240971347135 -3.87672778777878
 1  6.01232481088109 -1.80104878027803 -3.20557178107811
 1  5.12004583198320 -2.67394000830083 -3.14944912871287
 1  6.10725114701470  0.05726106350635 -2.22122473967397
 1  5.61735684508451 -0.01976642884288 -0.68618288168817
 1  6.99322050095009 -1.99584778187819 -0.09032731113111
 1  7.69984538293829 -1.77319610991099 -1.86396587248725
 1  8.48233036443644  0.77035763056306 -1.46043882918292
 1  8.00426892499250  0.63932912111211  0.23304901330133
 1  10.07231967906791 -1.41237868156816 -0.41374853245325
 1  8.57705995029503 -2.05711452715272  2.16739510031003
 1  10.41749781918192 -1.64238812001200  2.10110200160016
 1  8.96579979157916 -0.25910713311331  2.53345465056506
 1  10.46751038883888  1.29212197209721 -0.90862803440344
 1  10.50432017861786  1.71400027562756  0.79400328062806
 1  12.42573011521152 -0.25708814831483  1.43910759405941
 1  12.24338649264927 -0.82306052665267 -0.25854885238524
 1  13.21573644364437  2.04030357535754 -0.79787869246925
 1  12.96586863166316  2.16661091239124  1.13003879327933
 1  14.55433685948595 -0.13950146614661 -0.16755494669467
 1  14.82907280718072  0.92577297279728  2.67844061706171
 1  14.00451772527253 -0.80300797269727  2.11921942004200
 1  15.50499753285329 -0.45801938503850  1.56575305300530
 1  15.22256339123912  2.52331232463246 -0.79285926062606
 1  15.66525055765577  2.21575111061106  1.28770709390939
 1  17.14238555365537  0.31108427902790  0.36720690739074
 1  16.91505903010301  0.46711488068807 -1.20629200660066
 1  18.01039604670467  2.96691323912391 -1.02103509180918
 1  18.21103109920992  2.61133504040404  0.93354002450245
 1  19.72745530673068  0.81894474067407  0.03254660546055
 1  19.89279759775977  1.77369241884188 -2.69582170737074
 1  20.67758204820482  0.19007720592059 -1.95358949234923
 1  18.81342406940694  0.41475375697570 -2.10608868356836
 1  20.55139191779178  3.38415799489949  0.75461621522152
 1  21.43566130643065  2.66587317001700 -0.83208592359236
 1  19.94054070697070  3.71341882908291 -1.09606440274027
 1 -0.64145977107711 -4.28189093849385  2.67996634463446
 1 -2.13843352435243 -5.14755202890289  3.21634227082708
 1 -1.41698571187119 -4.17747622472247  3.92909706290629
 8 -11.35914428872887  4.21797659685969 -0.96419823352335
 1 -12.80580109160916  2.60723196329633 -1.57692829782978

