%nproc=4
%Mem=2GB
# td=(NStates=1) iop(3/107=0140000000,3/108=0140000000) iop(3/107=0140000000,3/108=0140000000) CAM-B3LYP/6-31G(d,p) 

TD

0 1
12 -6.84182675477548  0.56173531763176  0.09141676117612
 6 -4.52544965146515 -1.95380380218022  0.39159943694369
 6 -4.25532734813481  2.76817845094509  1.03466634823482
 6 -9.06299900460046  3.19350337443744 -0.36195569726973
 6 -9.23153125072507 -1.67732076167617 -0.74099415811581
 7 -4.70402547444744  0.35865526322632  0.62882191429143
 6 -3.88600586618662 -0.85343505030503  0.57670822622262
 6 -2.42706612521252 -0.59515127432743  1.04732679497950
 6 -2.43072303810381  1.02250239903990  1.42708487098710
 6 -4.04487074997500  1.46483656885689  1.08962373707371
 6 -2.14899118481848  1.43700549644965  2.76679124192419
 6 -1.53254200260026 -0.80513307670767 -0.16651532523252
 6 -0.12461057935794 -1.00325203180318  0.46256533003300
 6  0.86727780698070 -1.23941117801780 -0.73553172697270
 8  0.90484055215522 -0.75792840534053 -1.83022401260126
 8  1.87022730933093 -2.06883718231823 -0.15493041554155
 7 -6.74385612781278  2.65991636163616  0.34208795669567
 6 -5.55776633753375  3.34697334053405  0.71120741694169
 6 -5.93788800400040  4.83290297509751  0.71211608020802
 6 -7.23953466686669  4.95629171967197  0.30233681698170
 6 -7.76733843774377  3.54760356875688  0.16367119851985
 6 -4.77204212451245  5.88680611111111  0.84204187218722
 6 -7.90446200750075  6.18145506560656  0.22378190189019
 8 -7.55251916811681  7.22894451105110  0.53520137693769
 7 -8.85979953345334  0.78462932213221 -0.28700134923492
 6 -9.61048472087209  1.81135587088709 -0.36044709700970
 6 -10.83723035333533  1.56569644074407 -0.80001578277828
 6 -11.00682504000400  0.06295720012001 -0.79075993149315
 6 -9.56073773707371 -0.38596675987599 -0.59829190589059
 6 -12.00504728002800  2.55337153025302 -1.01108575937594
 6 -12.27552067256726 -0.79009257155716 -1.02083021672167
 6 -12.46623348544855 -0.87510967616762 -2.52749554425443
 7 -6.98652513541354 -1.46972953425343  0.02809016451645
 6 -7.94824748634863 -2.23211320802080 -0.40498369636964
 6 -7.56481406650665 -3.68303562596260 -0.50822183228323
 6 -6.25907152835283 -3.61778093899390 -0.30239850045004
 6 -5.90197648634864 -2.19616843134313  0.14254043834383
 6 -8.35212373587359 -4.83187056485649 -0.79236205210521
 6 -4.97765396989699 -4.44094989308931  0.02786081178118
 8 -4.80871261996200 -5.64160469876988  0.04813532013201
 6 -3.80262398779878 -3.36443700290029  0.35687033423342
 6 -3.05401891279128 -3.71738791429143  1.70238995199520
 8 -3.74516975707571 -4.11550828562856  2.66162483228323
 8 -1.82275395029503 -3.50589689498950  1.68807874707471
 6 -1.11716023812381 -3.82074716481648  3.00644506970697
 6  2.95845773857386 -2.32159733663366 -1.29948119221922
 6  3.98516228362836 -1.38908590969097 -1.05960149244925
 6  5.04638539393939 -1.14814168556856 -1.98935513711371
 6  5.25899988378838 -1.74436757145715 -3.37125410761076
 6  6.27291111571157 -0.15478313121312 -1.71129768826883
 6  7.60496919091909 -0.89139492159216 -1.27710444774477
 6  8.52255481578158  0.31856749134914 -0.92124060456046
 6  9.78868195759576 -0.38046496679668 -0.09641794749475
 6  9.31051856815682 -0.96062487718772  1.26216058485849
 6  10.89147147714771  0.57218207240724  0.06612145054505
 6  12.18882415291529 -0.02076076887689  0.25797410861086
 6  13.29681122372237  1.00224749944994  0.18352125052505
 6  14.92033836903691  0.25722900100010  0.70550521262126
 6  14.95288027612761  0.01615933543354  2.15617554155416
 6  15.87631726012601  1.38711361336134  0.19361256655666
 6  17.35300477857786  0.76346157055706  0.31192431853185
 6  18.33995354275428  1.68795598679868 -0.29896004280428
 6  19.69443164426443  1.00154864966497 -0.28756884058406
 6  19.74156395769577  0.04609003930393 -1.51990778197820
 6  20.77977514641464  2.01022244024402 -0.21382647854785
 1 -3.50240087838784  3.39437068806881  1.39943934563456
 1 -9.96047002950295  3.96157524262426 -0.50301393529353
 1 -10.14425691729173 -2.44965536483648 -0.87881070697070
 1 -2.31755427222722 -0.94704232203220  2.06249629792979
 1 -1.76015535413541  1.61089156535654  0.64200065346535
 1 -0.92225360906091  1.27976629102910  2.81641235233523
 1 -2.49688786268627  2.56491506790679  2.91680779857986
 1 -2.73226555905591  0.83136102140214  3.53409927902790
 1 -1.60632965326533 -2.06490776377638 -0.61083887068707
 1 -1.47002217121712  0.03233176027603 -0.86665645644564
 1  0.38097609590959 -0.32940437373737  1.20406627182718
 1  0.02496877707771 -1.76918325212521  1.13844407650765
 1 -3.98275280568057  6.02218004590459  0.01376633433343
 1 -5.17660794139414  7.02475515141514  0.87454436053605
 1 -4.53596462466247  6.01821078207821  1.76749452175218
 1 -8.99719273337334  6.17981309050905 -0.31259763556356
 1 -11.78123767736774 -1.90084095159516 -0.36708113531353
 1 -13.40646686168617 -0.76369997019702 -0.73250088648865
 1 -13.11482930603060 -1.47944005940594 -2.81987910501050
 1 -12.72864982878288  0.23747116861686 -2.88013018251825
 1 -11.37005382978298 -1.08706202320232 -2.83225983338334
 1 -8.50214939823982 -5.00187674327433 -1.89668189618962
 1 -7.90880609520952 -5.69276928952895 -0.56740639253925
 1 -9.36003328332833 -4.66052801400140 -0.08628401890189
 1 -3.06217579897990 -3.75473919881988 -0.41748005480548
 1  3.31201281668167 -3.56579385318532 -1.53709942704271
 1  2.21495578437844 -1.96999291429143 -2.12242247754776
 1  3.87574490219022 -1.21662441084108  0.03949755135514
 1  4.08136119311931 -1.35974944744474 -3.76803691869187
 1  6.30541411981198 -0.89088776417642 -4.10714193809381
 1  5.61795562296230 -3.18532114641464 -3.13233741754175
 1  6.17608803070307  0.57171250865087 -2.90682329952995
 1  5.64127923732373  0.57992354015401 -0.94345860926093
 1  7.76172735163516 -1.55467366446645 -0.13556183458346
 1  7.91864726312631 -1.57453624392439 -2.27201667756776
 1  8.85046717811781  0.68504909970997 -1.96703948924892
 1  8.18854735283528  1.37740292849285  0.00972668106811
 1  10.36639908700870 -1.16970441414141 -0.59670682828283
 1  8.73223546784678 -1.71358017371737  1.15402376317632
 1  10.20020609000900 -1.54045792699270  1.76794868626863
 1  9.62470568216822  0.04824360196020  2.14482578767877
 1  10.95404904270427  1.12972573247325 -0.99537670927093
 1  10.83178292489249  1.33390226582658  0.79332321262126
 1  12.37019456165616 -0.40420285978598  1.28463214651465
 1  12.58960111411141 -0.57205542614261 -0.33644664216422
 1  13.58383325332533  1.33668321332133 -0.76811571617162
 1  12.99568161296130  1.87191144244424  0.97803359275928
 1  15.07436886268627 -0.53099061506151  0.15357716651665
 1  14.86623652355236  0.90663105860586  2.78136090909091
 1  14.12227950145014 -0.67162483438344  2.60120761886189
 1  15.93312034513451 -0.43604718781878  2.29764624232423
 1  15.57660879577958  1.74616460986099 -0.89501947664766
 1  15.92450648324832  2.46590612611261  0.75471379457946
 1  17.52103341844184  0.70173334393439  1.26436662336234
 1  17.18793631783178 -0.15046687748775 -0.36305768316832
 1  17.98984399149915  1.96769331713171 -1.31104409270927
 1  18.30965096119612  2.77356126302630  0.21091776227623
 1  19.77350991219122  0.53285613181318  0.57985133593359
 1  19.68875719371937  0.49316436603660 -2.68243036823682
 1  20.87356164616461 -0.21228303010301 -1.42254638803880
 1  19.25341806880688 -1.17855557395740 -1.48520659535954
 1  20.74276105470547  2.98498807790779  0.49210996459646
 1  21.64379211951195  1.41046762946295 -0.00524323932393
 1  21.01810846374637  2.69580706790679 -1.78769356565657
 1 -0.19471509660966 -4.54356710611061  2.53275162316232
 1 -2.12228190919092 -4.39959723342334  3.81656229282928
 1 -0.50580459375937 -2.50952943004300  3.53264741794179
 8 -12.01427980228023  3.86681148034803 -0.77953976767677
 1 -12.77373788528853  1.75645688578858 -1.36373697869787

