%nproc=4
%Mem=4GB
# td=(NStates=1) iop(3/107=0140000000,3/108=0140000000) iop(3/107=0140000000,3/108=0140000000) CAM-B3LYP/6-31G(d,p) 

TD

0 1
12 -5.64772627922792  1.21875674997500  0.31504010921092
 6 -4.99136952415242 -2.18097656095610 -0.40769763656366
 6 -3.42137092619262  1.14526481128113  2.81033640694069
 6 -6.14995379107911  4.56662992719272  0.63682389118912
 6 -7.92340810791079  1.13875472617262 -2.38093576707671
 7 -4.33672792609261 -0.30454864666467  1.08559989878988
 6 -4.19957348484848 -1.60682438403840  0.67352970257026
 6 -3.24339746424642 -2.39965326812681  1.48566292999300
 6 -3.03775694669467 -1.39366225712571  2.68745530163016
 6 -3.69843727112711 -0.09994262196220  2.24113869906991
 6 -3.48453149254925 -1.80024346574657  4.10092279167917
 6 -1.89118431163116 -2.66180358965897  0.75035034053405
 6 -0.92255389888989 -3.57596517711771  1.48033162116212
 6  0.33455855635564 -3.84435827652765  0.67930612531253
 8  0.45292535683568 -3.41257857145715 -0.44917115131513
 8  1.08490533623362 -4.66875649294929  1.26480108740874
 7 -5.02929374567457  2.60506988388839  1.57114734643464
 6 -4.13073516331633  2.34034145584558  2.67499810311031
 6 -3.73975347904790  3.64198270047005  3.22362291849185
 6 -4.43462401510151  4.65099662796280  2.57388665996600
 6 -5.28154425862586  3.92451054625463  1.60085617791779
 6 -2.77020238333833  3.85665304110411  4.34499868926893
 6 -4.59582611321132  6.06176359685969  2.81418092289229
 8 -4.16016606460646  6.66610449844984  3.72082598249825
 7 -6.79080288018802  2.68798869466947 -0.69606126242624
 6 -6.89971268606861  3.95665528272827 -0.29296098479848
 6 -7.96266145254525  4.61506823162316 -1.23963807330733
 6 -8.42763221652165  3.61004793469347 -2.07647659205921
 6 -7.72655154565457  2.41447745654565 -1.77134308080808
 6 -8.35060805170517  5.99476938633863 -1.18874838363836
 6 -9.53638800210021  3.81622202040204 -3.12130676347635
 6 -8.86564801850185  3.85767391359136 -4.57392379637964
 7 -6.36688510751075 -0.08819383708371 -1.14714980698070
 6 -7.30500002960296 -0.01611768036804 -2.04206841754175
 6 -7.52639014621462 -1.28285998959896 -2.67047957055706
 6 -6.64728427722772 -2.18660823262326 -2.03918008370837
 6 -5.90996941234123 -1.42304586968697 -1.09659578997900
 6 -8.36303176097610 -1.74914504050405 -3.78353524972497
 6 -6.13108677577758 -3.55816140004000 -2.06058961406141
 8 -6.60314470997100 -4.52534023242324 -2.73396966206621
 6 -5.01587014911491 -3.56652470507051 -0.97093941374137
 6 -5.37452492989299 -4.64763020412041  0.13960763256326
 8 -5.85493126472647 -4.39145815391539  1.19697606100610
 8 -4.97335703390339 -5.88322951935193 -0.30252339693969
 6 -5.23377094129413 -7.03718557185719  0.49108093789379
 6  2.32726369956996 -4.94108522872287  0.57744169856986
 6  3.40320485548555 -3.99187934883488  0.87072497229723
 6  3.94864425462546 -3.05325819591959 -0.03511987698770
 6  3.68735307420742 -3.09527446874687 -1.46110561506151
 6  5.07320374617462 -2.17454250185019  0.37372117091709
 6  6.46053092439244 -2.65737866306631 -0.08554708730873
 6  7.61455677927793 -1.86457581308131  0.62777846834683
 6  8.94528534983498 -2.00121495509551  0.01556377387739
 6  9.50262664436444 -3.43096373677368  0.06292283458346
 6  9.96912749184919 -0.97849808720872  0.37195971147115
 6  11.28355565796580 -0.88173778067807 -0.28734750095010
 6  12.19071676027603  0.31046567406741  0.12972982058206
 6  13.53523597939794  0.44703957385739 -0.62197696089609
 6  14.38708700770077 -0.75669507210721 -0.35262941384138
 6  14.32168810841084  1.75833200480048 -0.21181043584358
 6  15.60730492089209  2.10206823502350 -0.93565856085609
 6  16.07698028242824  3.47104185698570 -0.60276088928893
 6  17.35236048514852  3.84814265586559 -1.24570850605061
 6  17.22226481618162  3.96614150585058 -2.83543576777678
 6  17.99298870497050  5.13317858315832 -0.60915037393739
 1 -2.76560228302830  1.18250252565256  3.77865833423342
 1 -6.38481646044604  5.67728310871087  0.88338733043304
 1 -8.76787719491949  1.31136143904390 -3.21693717251725
 1 -3.82475354015402 -3.12676799219922  1.86051411221122
 1 -1.90042716661666 -1.13728138973897  2.78297957405740
 1 -2.97630740984098 -2.63606676787679  4.55296884088409
 1 -3.09649044174417 -0.92974287868787  4.71357338713871
 1 -4.46523903560356 -2.01615069596960  4.13846779727973
 1 -2.25980129382938 -3.19077859515952 -0.18587921172117
 1 -1.49032686508651 -1.91903101940194  0.33607172877288
 1 -0.63717915141514 -3.15734703030303  2.61007522622262
 1 -1.60447516911691 -4.35069220042004  1.78585038303830
 1 -1.77040715451545  3.59783930833083  4.10157606730673
 1 -2.71111210131013  4.91777898389839  4.78284454215422
 1 -2.90085308030803  3.11580257775778  5.17938294429443
 1 -5.11035409930993  6.72557675207521  1.87773309470947
 1 -10.32815194869487  3.16813747084708 -3.06244949664966
 1 -10.10507130503050  4.51952579667967 -3.03132342304231
 1 -9.75336513631363  3.89214762876288 -5.19460466276628
 1 -8.30951046044605  4.92205195059506 -4.75249520452045
 1 -8.19546939593959  2.97898725752575 -4.75734565936594
 1 -8.24233182278228 -1.25037558045805 -4.89675067336734
 1 -8.48503948694870 -2.89244264936494 -3.95007764476448
 1 -9.40404048354836 -1.38870569396940 -3.55678258495850
 1 -4.12607996539654 -3.84271909850985 -1.73095638253825
 1  2.52647378037804 -5.88228617161716  0.84164012091209
 1  2.11099184258426 -5.00482745884588 -0.43641709130913
 1  3.57182930523052 -3.68047732953295  2.00316532413241
 1  2.74395938263826 -3.51764738583858 -1.86730927192719
 1  3.68540315361536 -2.07227078637864 -1.75820829132913
 1  4.56090826482648 -3.70363409260926 -1.90681960786079
 1  4.81684172507251 -1.18874529852985  0.06328821232123
 1  5.04176270357036 -2.06477811021102  1.54284916521652
 1  6.47788531523152 -3.63384657675768  0.21842972697270
 1  6.50837099749975 -2.37576518551855 -1.14295489098910
 1  7.04932386368637 -0.81400472557256  0.62288953445345
 1  7.56962906580658 -1.98725530863086  1.78698308360836
 1  8.64959906920692 -1.68013628882888 -1.11908524662466
 1  8.66706122482248 -4.22890166156616 -0.20776456885689
 1  10.43467280808081 -3.70958516061606 -0.48907902140214
 1  9.86107516891689 -3.67620871237124  1.00001044374438
 1  9.38423757435744  0.04292001820182  0.27909327312731
 1  10.23867396489649 -1.00012654655466  1.50516005600560
 1  12.01963710501050 -1.83475350725073 -0.20193456665667
 1  11.24681076777678 -0.87758066296630 -1.39033036663666
 1  11.52246327982798  1.15175960516052 -0.06962651785179
 1  12.23030785408541  0.28953014441444  1.23872215241524
 1  13.29661646234623  0.43069750205020 -1.81280351905191
 1  14.87036637493749 -0.65963417611761  0.52859853985399
 1  13.79679525052505 -1.63823283958396 -0.73230955245525
 1  15.40644163256326 -0.78265146334633 -1.09227612011201
 1  13.54711290549055  2.61852647174717 -0.26629841754176
 1  14.60927762806281  1.84919520872087  0.87315452935294
 1  16.36176783258326  1.30052866556656 -0.72497898859886
 1  15.39866544994499  1.88869278207821 -2.08799017871787
 1  15.31149255385539  4.20868624662466 -0.57673967206721
 1  16.16970974107411  3.69588623002300  0.51224112451245
 1  18.04438812021202  2.92189368056806 -1.07561664126413
 1  16.49268998939894  4.80221675057506 -3.43936629642964
 1  18.17461338483848  4.14714422772277 -3.35919052415241
 1  16.85672587278728  2.97566863686369 -3.19859789438944
 1  18.11897794499450  4.93068428592859  0.42698436263626
 1  19.02267979027903  5.44799895209521 -0.99458637303730
 1  17.20616216711671  5.95122462556256 -0.72577663896390
 1 -4.75647094849485 -7.90230966406641 -0.04625816351635
 1 -6.37209163946395 -7.15718280488049  0.66751025852585
 1 -4.61415958455846 -6.97254883048305  1.52795725232523
 8 -7.76233382498250  6.83688018881888 -0.55647343134313
 1 -9.20041833893389  6.36987263216322 -1.65372105490549

