%nproc=4
%Mem=2GB
# td=(NStates=1) iop(3/107=0140000000,3/108=0140000000) iop(3/107=0140000000,3/108=0140000000) CAM-B3LYP/6-31G(d,p) 

TD

0 1
12 -6.74337690979098  0.56176532063206  0.16435405490549
 6 -4.41975908240824 -1.92169059085909  0.34782505950595
 6 -4.32800461586159  2.90572220532053  1.12796567816782
 6 -8.96826953165317  3.11618564266427 -0.27265676737674
 6 -9.13029112671267 -1.76843987358736 -0.72854291299130
 7 -4.73308838073807  0.52465186288629  0.59350838293829
 6 -4.04163142874287 -0.63298300510051  0.63032358775878
 6 -2.45673909250925 -0.41351311051105  0.87868993129313
 6 -2.29271923772377  1.28124827362736  1.04960712321232
 6 -3.87843410631063  1.58614870007001  0.89703447814781
 6 -1.82577886358636  1.69112090799080  2.42705726852685
 6 -1.49462821122112 -0.92742530593059 -0.11411008470847
 6  0.00640252195220 -0.98984069066907  0.36262533603360
 6  0.82369344854485 -1.20166740364036 -0.88400657445745
 8  0.53323339143914 -1.04124673717372 -2.10573156335634
 8  2.03816410301030 -1.83775407400740 -0.54595951845185
 7 -6.80365210741074  2.52143251325132  0.47916166406641
 6 -5.57593815471547  3.29844848804880  0.86075237143714
 6 -6.10254446964696  4.76399608440844  0.83889875847585
 6 -7.44128484188419  4.85372146264626  0.48231481478148
 6 -7.75930763466347  3.51468027642764  0.12865769716972
 6 -5.37942286258626  6.01733916441644  1.19496716471647
 6 -8.19678123942394  6.14556147624763  0.18554807850785
 8 -7.95413933013301  7.25730734733473  0.60072792959296
 7 -8.83589714321432  0.66934779397940 -0.29796244534453
 6 -9.57990166256626  1.74047878317832 -0.38055910821082
 6 -11.06217284758476  1.46920679177918 -0.80052583378338
 6 -10.99602395989599 -0.04512360796080 -0.91482233773377
 6 -9.61405306860686 -0.50904906810681 -0.47770984768477
 6 -11.96947372267227  2.36504269736974 -1.14065871667167
 6 -12.20440356085608 -0.91963552585259 -0.90466860056006
 6 -12.54381124322432 -1.30582274747475 -2.36571936663666
 7 -6.98857534043404 -1.49758231953195 -0.03875652015201
 6 -7.87125978757876 -2.32483247994799 -0.29858305630563
 6 -7.38127571267127 -3.62136945934593 -0.51643265336534
 6 -6.08427404860486 -3.66936609750975 -0.14085234583458
 6 -5.82865915461546 -2.23531234573457  0.18197438173817
 6 -8.15097362086209 -4.86746412421242 -0.72697551345134
 6 -4.62843904840484 -4.36324212231223 -0.19697167146715
 8 -4.32933468216822 -5.43686422472247 -0.33894338773877
 6 -3.69797352275227 -3.21426198539854  0.38860350755075
 6 -3.24510802170217 -3.53779995549555  1.82019173217322
 8 -3.97189242934293 -3.96274300910091  2.69944861466147
 8 -1.83841551645165 -3.27196350165016  1.99470941014101
 6 -1.19145766786679 -3.32584767486749  3.16472089728973
 6  3.10151204400440 -2.23084826172617 -1.41819306340634
 6  4.15585935333533 -1.27161416251625 -1.25520105240524
 6  5.17222797819782 -1.04773164456446 -2.23894009560956
 6  5.48406239003900 -2.29614274897490 -3.39496647884788
 6  6.29363318791879  0.11973432053205 -1.97613417191719
 6  7.39078777277728 -0.61654743684368 -0.92757949524952
 6  8.40801336163616  0.47051268586859 -0.73164164466447
 6  9.54832792219222 -0.13439035933593 -0.00809911561156
 6  9.24124164046404 -0.58678749344934  1.30803517231723
 6  10.89117144714471  0.71080593479348  0.05917075547555
 6  12.15904117461746 -0.05570426322632  0.43819213041304
 6  13.39716125872587  0.93019029372937  0.57846074447445
 6  14.75364169936994  0.18914219231923  0.82808747084708
 6  14.90271525962596 -0.31795407590759  2.06323624762476
 6  15.99728935733573  1.24149905190519  0.57251045634563
 6  17.36667614571457  0.29327455185519  0.19687281338134
 6  18.34553410081008  1.36175336653665 -0.38215836263626
 6  19.86402860396040  0.73963245804580 -0.30127021072107
 6  19.80617041834184  0.04695012531253 -1.80336612781278
 6  20.77084425332533  1.90816223422342 -0.40126522242224
 1 -3.68634927322732  3.63459471047105  1.51800120182018
 1 -9.87975195769577  3.73214229932993 -0.29145277917792
 1 -9.83033552515252 -2.37444784408441 -1.33701652755276
 1 -2.14607712451245 -0.85656327412741  2.00865091339134
 1 -1.63024236283628  1.55619609580958  0.41756821022102
 1 -0.85741712541254  1.26208452285228  2.58103881498150
 1 -1.62018019191919  2.70627920432043  2.79190530833083
 1 -2.51100343284328  1.31381926722672  3.17632350145014
 1 -1.84491351165116 -1.99803107610761 -0.49325711251125
 1 -1.41569673867387 -0.29112058495850 -1.26401619241924
 1  0.08795679397940  0.21264983168317  0.54959082428243
 1  0.05399167936794 -1.92163849764976  1.26896712881288
 1 -4.38795332573257  6.44320214811481  0.71791674937494
 1 -6.25001528212822  6.97991066696670  0.95926283238324
 1 -5.01367239543954  6.14774373537354  2.23265103740374
 1 -9.35277829192919  6.07731284048405  0.05605923012301
 1 -12.21991154475448 -1.71053192069207 -0.26141056825683
 1 -12.95152136713671 -0.23613721392139 -0.67660529692969
 1 -13.39752757585759 -2.03702581798180 -2.44326144324432
 1 -12.93693065686569 -0.20877345584559 -2.74738690819082
 1 -11.60113693809381 -1.85839915691569 -2.93652025942594
 1 -8.87961714501450 -4.68081463706371 -1.51033326132613
 1 -7.55079029362936 -5.64321433403340 -1.05013466536654
 1 -8.82183946394639 -5.22171413261326  0.20321493099310
 1 -2.71616119751975 -3.07669139403940 -0.11500980778078
 1  3.42650426582658 -3.19834710851085 -1.08922463956396
 1  2.90813510231023 -2.42251816681668 -2.22407264256426
 1  3.99537686538654 -0.47222997139714 -0.42663906230623
 1  5.13254631163116 -1.84647812031203 -4.39246936193619
 1  6.47573115151515 -2.21159983538354 -3.63596482038204
 1  5.22700652805281 -3.14318693299330 -2.80312449624962
 1  6.56875729762976  0.54901023842384 -2.90531314851485
 1  5.75123023242324  1.28296384418442 -1.41596585998600
 1  6.49590076897690 -1.08013621072107  0.06917863946395
 1  7.95074047244725 -1.44652344264426 -1.16603607950795
 1  8.56566869826983  0.76813740854085 -1.60765355065507
 1  8.24869336743675  1.50285547374738 -0.07026131773177
 1  9.84614706180618 -1.06849429312931 -0.49831698929893
 1  8.62370461476148 -1.19040785648565  1.05640400120012
 1  10.12317838723872 -1.07061094229423  1.68727061846185
 1  9.02141535313531 -0.08640986338634  1.98946025112511
 1  11.20309394719472  1.11125388528853 -1.11802897449745
 1  10.68801854845484  1.39327820342034  0.81738561886189
 1  12.04811235343534 -0.52546498599860  1.38128181148115
 1  12.50356251025103 -0.89827804840484 -0.10281327882788
 1  13.88715358535854  1.62616216121612 -0.37604650925092
 1  13.17041908670867  1.60849510081008  1.22159794919492
 1  14.82052347814781 -0.48983649964996  0.02091390019002
 1  14.92580248014801  0.48822921842184  2.78238101110111
 1  14.26904417791779 -1.22564023592359  2.37347484558456
 1  15.63917095019502 -0.74487807090709  2.04215069276928
 1  15.71235237013701  1.93736372977298 -0.37546752145214
 1  16.15317935053505  1.88624816031603  1.42480080328033
 1  17.55077639273927 -0.26719354875488  1.41734192089209
 1  17.24817234143414 -0.47564939573957 -0.39492086948695
 1  17.92683769086909  1.60646719451945 -1.29170215851585
 1  18.19118911501150  2.17599150605060  0.32371904240424
 1  19.87648020922092  0.09344219041904  0.73525687648765
 1  19.75680399839984  0.81938698829883 -2.57394952015202
 1  20.90291458145814 -0.41557335913591 -1.98735286868687
 1  19.10485321232123 -0.78692641104110 -1.70663873857386
 1  20.97767454605460  2.41009058815882  0.60427118071807
 1  21.85219295959596  1.55898248094809 -0.49467218221822
 1  20.35954260716072  2.47043453065306 -1.11719651595159
 1 -0.24362998809881 -2.95739848924892  2.83266161416142
 1 -1.15579526052605 -4.47460473417342  3.56470710731073
 1 -1.93062707600760 -2.82078055515552  4.14006816001600
 8 -11.79793816811681  3.51372617181718 -0.91707352105211
 1 -13.22104261576158  1.87586882698270 -1.19528013301330

