%nproc=4
%Mem=2GB
# td=(NStates=1) iop(3/107=0140000000,3/108=0140000000) iop(3/107=0140000000,3/108=0140000000) CAM-B3LYP/6-31G(d,p) 

TD

0 1
12 -6.60599317141714  0.63115225932593  0.07614523402340
 6 -4.51895900240024 -2.12510093189319  0.58230850785078
 6 -3.96768858425843  2.76324795789579  0.99017189878988
 6 -8.85169787448745  3.28756278037804 -0.04616411811181
 6 -9.16814491209121 -1.54172720232023 -0.52362242094209
 7 -4.63528860076008  0.35456485418542  0.54152318441844
 6 -3.84664192979298 -0.88927863466347  0.67044760016002
 6 -2.41613503210321 -0.67749950915092  0.82760482278228
 6 -2.51666163196320  0.85492564136414  1.28874103660366
 6 -3.78487475037504  1.41796188138814  1.04093886858686
 6 -2.33950023572357  0.89428122402240  2.62279684248425
 6 -1.54308305670567 -1.10069263266327 -0.19348802250225
 6 -0.18554667296730 -1.47153886048605  0.40188926242624
 6  0.78773985318532 -1.78065530243024 -0.74672284608461
 8  0.74514458255826 -1.45965857835784 -1.87524851505151
 8  1.86950723732373 -2.31009130773077 -0.23785870837084
 7 -6.51443318551855  2.60904127412741  0.42900664856486
 6 -5.35951651255126  3.26886552975298  0.67089338553855
 6 -5.76391060626063  4.78896858165816  0.85753062166217
 6 -6.97140785418542  4.96975306580658  0.44819140244024
 6 -7.51514321822182  3.54415322372237  0.17626245764576
 6 -4.60123504380438  5.86739416991699  1.09723739173917
 6 -7.61503306460646  6.24201112121212  0.29564908860886
 8 -7.01225514171417  7.22358397499750  0.43934179097910
 7 -8.67170072357236  0.72359321852185 -0.39593224232423
 6 -9.42138581098110  1.86767150245025 -0.40960201250125
 6 -10.93780041034104  1.76287615871587 -0.79660544174417
 6 -10.93888824632463  0.34606551095110 -0.87970882638264
 6 -9.58587025032503 -0.26985514871487 -0.64279635633563
 6 -11.93100987628763  2.70469666276628 -1.05903055385539
 6 -12.10150327082708 -0.34615817811781 -1.32915104880488
 6 -12.13245010711071 -0.57246941214121 -2.86028882358236
 7 -6.88803528642864 -1.36682924422442  0.00321767726773
 6 -8.00921358295829 -2.28181817851785 -0.46962016001600
 6 -7.59199678477848 -3.57935525792579 -0.46730774087409
 6 -6.34559018021802 -3.61212037293729 -0.16034429502950
 6 -5.88961525022502 -2.20106892139214  0.09028521282128
 6 -8.42342086558656 -4.78887626542654 -0.94959777567757
 6 -5.10400660516052 -4.48897469556956 -0.02942491679168
 8 -4.95225697439744 -5.68043858215822 -0.21917141054105
 6 -3.94301802720272 -3.60459101830183  0.70782542974297
 6 -3.48781229212921 -3.80616679217922  1.81382109510951
 8 -4.09851509160916 -4.09222595739574  2.91612028182818
 8 -2.11268294319432 -3.71070737603760  1.82557249644964
 6 -1.54611313341334 -4.17396248634863  2.98832325752575
 6  2.99323121592159 -2.54386956385639 -1.28779002310231
 6  3.96957072447245 -1.47249425052505 -1.12940847314731
 6  5.13820457585759 -1.19858673007301 -1.83622982458246
 6  5.45484946874687 -1.94002713741374 -3.08622560476048
 6  6.21015484008401 -0.14801245414541 -1.53179973847385
 6  7.42874156815682 -0.71248703080308 -0.96146288358836
 6  8.42773533383338  0.37459309390939 -0.49035751625163
 6  9.58725181458146 -0.24969188948895  0.10653234753475
 6  9.19774729102910 -0.73843265796580  1.52279664846485
 6  10.77645997599760  0.72681753595360  0.24099893829383
 6  12.09187445794579  0.22351365856586  0.42604091529153
 6  13.26122766536654  1.16457373207321  0.49601249964997
 6  14.67470380558056  0.47181045914591  0.56846150825083
 6  14.87922291039104 -0.07364964546455  1.97604752875288
 6  15.68110773917392  1.70948585058506  0.06236944224422
 6  17.07116659475948  0.87474269866987 -0.05326220012001
 6  18.23080262766277  1.83863105430543 -0.59171931873187
 6  19.68504070517052  1.40169866466647 -0.67206729042904
 6  19.97085688698870  0.23950938123812 -1.73784957615762
 6  20.60062723162316  2.66729814781478 -0.70825592149215
 1 -3.28584922322232  3.57116836783678  1.08528793049305
 1 -9.98918290079008  3.71748083318332 -0.29223285718572
 1 -9.93379587118712 -2.15898629792979 -0.76879970587059
 1 -2.07788030483048 -1.07987560536054  1.84056410471047
 1 -1.80484982358236  1.36619709590959  0.92841929532953
 1 -1.81318270197020  0.16328464286429  2.86829754085408
 1 -1.95552372627263  1.97669624602460  3.18830494829483
 1 -3.22938527102710  0.96990487578758  3.02284815391539
 1 -1.73334235453545 -1.92605387838784 -0.98267605440544
 1 -1.12649781878188 -0.24589606250625 -0.99375916671667
 1  0.02259025732573 -0.85251668496850  1.19765563076308
 1 -0.29205292509251 -2.59315564936494  0.72556278837884
 1 -3.76664119451945  5.98341616951695  0.31892685038504
 1 -5.32878315891589  6.92255493139314  1.49714662076208
 1 -4.03253428162816  5.43677263826383  2.07517528982898
 1 -8.39577259135914  6.37643275247525 -0.25092146794679
 1 -12.15525507910791 -1.52983385088509 -0.92994742194219
 1 -13.08981519651965 -0.07998159835984 -1.01879951635163
 1 -12.94946276937694 -1.42539465486549 -3.24733185028503
 1 -12.35830279407941  0.45520294179418 -3.50126229572957
 1 -11.20111693609361 -1.16830014701470 -3.35996260366037
 1 -8.91362054535454 -4.33543009860986 -1.86332856085609
 1 -7.50381559615962 -5.66453646624662 -1.09835948784878
 1 -9.40746802680268 -5.35336729792979 -0.16582197269727
 1 -3.04527410881088 -3.62715644054405  0.18155984918492
 1  3.44067568296830 -3.65964323812381 -0.88934465156516
 1  2.75575986478648 -2.45778169316932 -2.16265650095009
 1  3.87388471617162 -0.82015476387639 -0.04163056145615
 1  4.40802385938594 -2.09158263076308 -3.94576469146915
 1  6.34953853225323 -1.57865654105410 -3.60121134503450
 1  5.25499932733273 -3.17422003630363 -2.72789697349735
 1  6.42393281518152  0.20916625402540 -2.41736435363536
 1  5.86879198859886  0.45700124792479 -0.96085034843484
 1  6.97328850775077 -0.96410460756076 -0.23166144454445
 1  7.80458585698570 -1.52429121942194 -1.35319479537954
 1  8.99716184758476  0.77938853365337 -1.37826061136114
 1  7.84888338643864  0.97654284248425  0.24009971837184
 1  9.99050149724972 -0.99917736143614 -0.49177633523352
 1  8.20571281558156 -1.11789060476048  1.33705206600660
 1  10.01228729812981 -1.52629651085109  1.93578546994700
 1  8.91816502810281  0.21180995859586  2.21788309340934
 1  10.91308494629463  1.18178093799380 -0.48958613021302
 1  10.61222096869687  1.50485936153615  1.03723760406041
 1  12.15548309050905 -0.62394483398340  1.33924760806081
 1  12.35411756575658 -0.53113133373337 -0.27379037653765
 1  13.09415428542854  1.66284582958296 -0.76178508310831
 1  12.77753979877988  2.13545779707971  1.25202099149915
 1  14.68479990579058 -0.20118763476348 -0.32993118431843
 1  14.51337123702370  0.94956535203520  3.05154792779278
 1  14.17971524502450 -1.12189986188619  2.50303780188019
 1  15.82302933603360 -0.24108769186919  2.21847832553255
 1  15.22425356025602  2.14693468686869 -0.91135110981098
 1  15.80670470307031  2.52779231473147  1.03256157935794
 1  17.54580589568957  0.42211538213821  0.86383657035704
 1  16.96398392259226  0.03219138833883 -0.70559193659366
 1  17.64387939503951  2.24201074887489 -1.61475446374638
 1  18.12201219731973  2.73640754765477  0.02001867236724
 1  20.07946050725073  0.82086493269327  0.31765511631163
 1  19.42858117611761  0.77942299189919 -2.65269739493949
 1  21.22199648964896  0.07796599479948 -1.70861499489949
 1  19.59405213221322 -0.78600631903190 -1.59518759345935
 1  20.46675345394539  3.17532711181118 -0.00485973237324
 1  21.77285502580258  2.24982156485648 -0.34269698469847
 1  20.75299195209521  3.26612409960996 -1.70706550285029
 1 -0.22396802190219 -3.56673942334234  2.95963431143114
 1 -1.81150083108311 -4.92274954865487  3.09330996759676
 1 -1.94448846214621 -3.46186466356636  3.95619977317732
 8 -11.71714008830883  3.96337113631363 -0.96460827452745
 1 -12.93811432293229  2.30941218131813 -1.39006961196120

