%nproc=4
%Mem=4GB
# td=(NStates=1) iop(3/107=0140000000,3/108=0140000000) iop(3/107=0140000000,3/108=0140000000) CAM-B3LYP/6-31G(d,p) 

TD

0 1
12 -5.65141664826483  1.17084195849585  0.23229183438344
 6 -5.09717010421042 -2.16706516981698 -0.34016088288829
 6 -3.35963475257526  1.18788907370737  2.64602997629763
 6 -6.10395919161916  4.51272453665367  0.59207941674167
 6 -8.07243301040104  1.20779162986299 -2.41526920042004
 7 -4.19363361666167 -0.26153434523452  0.96557789658966
 6 -4.28339186668667 -1.61094479607961  0.71330367996800
 6 -3.17797092159216 -2.32418572137214  1.46321068476848
 6 -2.93767693869387 -1.32951584248425  2.68813536963696
 6 -3.50407783518352 -0.04610723842384  2.03324790999100
 6 -3.62852589198920 -1.70442388378838  3.95891859125913
 6 -1.87155234843484 -2.67185459475948  0.68979428492849
 6 -0.93258490199020 -3.51043862446245  1.54285787378738
 6  0.32668776927693 -3.81814565526553  0.63621181588159
 8  0.50210027432743 -3.46493380698070 -0.47432366656666
 8  1.06679352505251 -4.69642926022602  1.37057166446645
 7 -4.91378219451945  2.62630200710071  1.50204043574357
 6 -3.92221431123112  2.48961638333833  2.44301490479048
 6 -3.60901040474047  3.65939444164416  3.16796735293529
 6 -4.37977853055306  4.67601913021302  2.55994526582658
 6 -5.16035213941394  3.88801689688969  1.40922701500150
 6 -2.70275563866387  3.88100547634763  4.29717390679068
 6 -4.64875140574057  6.05012243274327  2.94227373217322
 8 -4.02254230223022  6.60454834283428  3.81679557945795
 7 -6.75333913381338  2.63656355215522 -0.71124278057806
 6 -6.89309202400240  3.98044766196620 -0.39678136683668
 6 -7.95902108850885  4.57199392419242 -1.11422553205321
 6 -8.41092054535454  3.65966289618962 -2.05663460786079
 6 -7.70261915241524  2.41971798059806 -1.75445139163916
 6 -8.41900489138914  5.96371628102810 -1.09055856465647
 6 -9.46867123042304  3.81808220642064 -3.13496812961296
 6 -9.09544099779978  4.15378352455245 -4.41263766776678
 7 -6.33270168916892 -0.15653067076708 -1.15421051305131
 6 -7.31576110571057 -0.04122019061906 -2.10709492019202
 6 -7.57619512671267 -1.32757446104610 -2.65229775237524
 6 -6.68852840164016 -2.13221279307931 -2.03818998469847
 6 -6.02303071847185 -1.44502806790679 -1.12997912831283
 6 -8.52969842764276 -1.51585171117112 -3.82668956515652
 6 -6.21543521062106 -3.56171175507551 -2.07644119921992
 8 -6.48851324682468 -4.54487218561856 -2.72371863696370
 6 -5.01944050615062 -3.60227828042804 -0.96993931373137
 6 -5.29987746514651 -4.70239568066807  0.08347201900190
 8 -5.88736450805080 -4.38721772987299  1.18881524492449
 8 -5.02728242644264 -5.90812200860086 -0.31542468706871
 6 -5.47746531073107 -7.00297215051505  0.57288911871187
 6  2.37992896609661 -5.08446956715672  0.71861581598160
 6  3.46848138313831 -4.23420358125813  0.96571447124712
 6  3.99677906810681 -3.36834970507051  0.11229486448645
 6  3.63724806370637 -3.34448939023902 -1.33875337983798
 6  5.13468989478948 -2.65742078967897  0.61575537433743
 6  6.51761663296330 -2.69826275147515 -0.17453598619862
 6  7.62259758335834 -1.93128248374837  0.59344503500350
 6  9.00787160846085 -2.01263609720972 -0.16504428692869
 6  9.68946532823282 -3.38468910931093  0.09091563386339
 6  9.83665424452445 -0.82417265466547  0.41456397189719
 6  11.28987629002900 -0.84192379927993 -0.13535230143014
 6  12.13354104270427  0.29347397489749  0.22700954855486
 6  13.48004045984598  0.54477934783478 -0.54294905810581
 6  14.46536483548355 -0.63585298789879 -0.22866701760176
 6  14.26195213481348  1.73738991059106 -0.09633888868887
 6  15.44336852725272  2.28202623082308 -0.98644363936394
 6  15.95032761716172  3.58189294209421 -0.64330494369437
 6  17.30523577267727  3.86782462406241 -1.33939787498750
 6  17.14614720442044  4.07608249994999 -2.80618284248425
 6  17.97674708080808  5.17456272157216 -0.85008446734673
 1 -2.64176989978998  1.22976725212521  3.46666713511351
 1 -6.50803878267827  5.68168354875488  0.77867685938594
 1 -8.90923133033303  1.15425572847285 -3.10158563736374
 1 -3.55135620042004 -3.13695901130113  1.84865292609261
 1 -1.84738186208621 -1.28386604820482  2.86599787588759
 1 -3.10673045214521 -2.60578373957396  4.39024256825683
 1 -3.50741153385339 -0.92340224462446  4.76873890369037
 1 -4.50864337603760 -1.76217529842984  3.84876882738274
 1 -2.05157047074707 -3.14040355765577 -0.31095171897190
 1 -1.37770560296030 -1.90925004130413  0.39608773037304
 1 -0.52332776627663 -3.14966626222622  2.50342456115612
 1 -1.16188090969097 -4.45771290249025  1.59236103410341
 1 -1.68262837663766  3.44222374677468  4.06247215691569
 1 -2.57647863796380  4.81315852185219  4.52441869956996
 1 -3.01915491049105  3.39579057655766  5.21463646964696
 1 -5.55515857975798  6.59276347074707  2.50262558395840
 1 -10.36959609310931  3.01230188728873 -3.08863211491149
 1 -10.13715451335134  4.52398624272427 -2.71390168086809
 1 -9.87167696749675  4.48221663566357 -5.07881308360836
 1 -8.22331184058406  4.99517926332633 -4.40410036503650
 1 -8.56685653465346  3.23637299609961 -4.91917184198420
 1 -8.25952354195420 -0.79239978287829 -4.50538153645364
 1 -8.39343032603260 -2.48720212531253 -4.23273591059106
 1 -9.60774085358536 -1.58211503490349 -3.30793770047005
 1 -3.90863822122212 -3.80393522012201 -1.54765805270527
 1  2.33263439643964 -6.29085702870287  0.97411336823682
 1  2.09077982138214 -5.12332930903090 -0.35445889548955
 1  3.76217834013401 -4.49262854465447  2.03446845444544
 1  2.57999298599860 -3.47593321442144 -1.56319886088609
 1  3.82840745404540 -2.30005356465647 -1.67810028052805
 1  4.35760793479348 -3.80680440964096 -2.20805973187319
 1  4.80174021492149 -1.53741016501650  0.48320020352035
 1  5.23971249854986 -2.78181981438144  1.79654453475348
 1  6.72604013071307 -3.77749094119412 -0.36694881088109
 1  6.21889204960496 -2.21716932593259 -1.19092968846885
 1  7.40782971427143 -0.77731105620562  0.62845009050905
 1  7.75283738663866 -2.32581916501650  1.64299868516852
 1  8.86738084738474 -1.91222949814981 -1.30680401850185
 1  9.01018553725372 -4.14396316771677 -0.32010580298030
 1  10.47077641844185 -3.68565276737674 -0.51411152465247
 1  9.89318838023802 -3.39110020152015  1.12439288198820
 1  9.29279843044304  0.06906263246325  0.36209157295730
 1  9.91123122062206 -0.94467100100010  1.50173971397140
 1  11.88219336063606 -2.06267629952995  0.09667529432943
 1  11.36039212591259 -0.86043894879488 -1.27004833843384
 1  11.68378941244124  1.36429085828583  0.16131657645765
 1  12.38276309960996  0.36819801120112  1.32114039423942
 1  13.10082688338834  0.64836926922692 -1.63829606830683
 1  14.73843318161816 -0.58773698639864  0.92182786278628
 1  14.22601817281728 -1.68756777307731 -0.34223054455445
 1  15.39469045744575 -0.63978717691769 -0.84439133163316
 1  13.49743793799380  2.68712333143314 -0.05480726842684
 1  14.59598629892989  1.69073936313631  0.99596681058106
 1  16.19157081288129  1.50694930763076 -0.73478996969697
 1  15.19427501090109  1.85113902670267 -1.90915229492949
 1  15.33326473107311  4.45451082908291 -0.70301229932993
 1  16.38247101720172  3.57152379377938  0.33943384378438
 1  18.08507218861886  3.10952244344434 -1.25987506710671
 1  16.74722544294429  5.02759928882888 -3.14399675947595
 1  18.31903782728273  4.09813932723272 -3.10915552065206
 1  16.44132433263326  3.14813588358836 -3.36030406500650
 1  18.09298534573457  5.17179839733973  0.26329799399940
 1  18.73362088438844  5.46622077427743 -1.37363427782778
 1  17.32347389828983  6.06247575067507 -1.01585564686469
 1 -5.36538183958396 -7.88739817291729 -0.10810434813481
 1 -6.47008143844385 -6.69584667126713  0.91860536803680
 1 -4.66091426002600 -6.96195777137714  1.27131158775878
 8 -7.83679127072707  6.85027152795280 -0.44394217821782
 1 -9.29038733583358  6.13856950185018 -1.97120280308031

