%nproc=4
%Mem=2GB
# td=(NStates=1) iop(3/107=0140000000,3/108=0140000000) iop(3/107=0140000000,3/108=0140000000) CAM-B3LYP/6-31G(d,p) 

TD

0 1
12 -6.85508808090809  0.64796394049405  0.08634625412541
 6 -4.52276938343834 -2.09502792459246  0.36374665166517
 6 -4.33515533093309  2.85737737083708  0.98536141774177
 6 -9.20891359605961  3.25392941704170 -0.22742224392439
 6 -9.30025812341234 -1.79741277087709 -0.65464552325233
 7 -4.87342241414141  0.41841123882388  0.59355838793879
 6 -4.01950921652165 -0.80485019181918  0.56931748714871
 6 -2.41414483308331 -0.47106886608661  0.88815087738774
 6 -2.57109707550755  1.10619076787679  1.13939610211021
 6 -3.97803406630663  1.43799388458846  0.78317309200920
 6 -2.09242552825283  1.45794759065907  2.52328689148915
 6 -1.60860960936094 -0.91376393979398 -0.31248992269227
 6 -0.17432555085509 -0.95699740634063  0.10155922942294
 6  0.86088716791679 -0.98994623152315 -0.92341051485149
 8  0.87235730383038 -0.32527514001400 -1.96734772497250
 8  1.90150043664366 -1.77519781838184 -0.53170809330933
 7 -6.84545628782878  2.57960833083308  0.41393514141414
 6 -5.70877143804380  3.29515815901590  0.71319761596160
 6 -5.88000221542154  4.85396508130813  0.51771664026403
 6 -7.34394510791079  4.80940703120312  0.18744532783278
 6 -7.93909561346135  3.44759356775678  0.10839567096710
 6 -4.94826974727473  5.92703013351335  0.74913258125813
 6 -8.12838439973997  6.02157907800780 -0.05198567486749
 8 -7.66668058425843  7.22991460806081  0.19450730753075
 7 -8.82843639713971  0.68339919911991 -0.26580923002300
 6 -9.65031870427043  1.68079281458146 -0.24090514281428
 6 -10.99489611991199  1.40729060016002 -0.58935471667167
 6 -10.98822317981798  0.03792469686969 -0.84478533403340
 6 -9.67436910021002 -0.42748091129113 -0.66038811551155
 6 -12.15991276657666  2.39345553865387 -0.56673132393239
 6 -12.26709983048305 -0.81872543484348 -1.14974310801080
 6 -12.16207306940694 -1.24613677887789 -2.63578637333733
 7 -7.08016449934994 -1.45868843014301 -0.16139878437844
 6 -8.14295695729573 -2.40831082778278 -0.32574577257726
 6 -7.55499308440844 -3.78789611201120 -0.51598260836084
 6 -6.24153977517752 -3.55919508040804 -0.04314257485749
 6 -6.04141042974297 -2.22753156765677  0.19011519581958
 6 -8.43816233973397 -4.86029340714071 -0.80838365426543
 6 -5.18069427392739 -4.42550834893489  0.08784681038104
 8 -4.85626737543754 -5.47453799209921  0.10376088268827
 6 -3.89083280868087 -3.38249880908091  0.40736538373837
 6 -3.13634714561456 -3.59828600410041  1.81116082908291
 8 -3.55922116221622 -3.91307804260426  2.87402607240724
 8 -1.85211688658866 -3.54961126642664  1.51602154135414
 6 -1.06464498659866 -3.97975306540654  2.53510793599360
 6  3.07512940574057 -2.14479965686569 -1.31107235133513
 6  4.08267203460346 -1.18316531763176 -0.89461499379938
 6  5.15355611101110 -0.65151202260226 -1.59978618021802
 6  5.08975295909591 -1.15935907060706 -3.03795077727773
 6  6.22343616821682  0.17592994009401 -1.06355291379138
 6  7.48287698169817 -0.62650843294329 -0.44150088738874
 6  8.58570113041304  0.28491412601260 -0.10105858635864
 6  9.77481057045705 -0.39170609090909  0.23435512981298
 6  9.58213572987299 -0.94617343204320  1.49379374817482
 6  10.99578190819082  0.51383623782378  0.14830966936694
 6  12.30649592009201 -0.02459115191519  0.23330164136414
 6  13.48606014861486  0.94712198689869  0.55135803420342
 6  14.99089542474247  0.19101237933793  0.54846950905091
 6  15.04715970407041 -0.36517879837984  1.72543246724672
 6  16.29808943734374  1.17195209720972  0.12765597089709
 6  17.47681715981598  0.49222444684468 -0.25792266616662
 6  18.49044859225923  1.47166435763576 -0.46323647044704
 6  19.93429563066307  0.95612410721072 -0.42419250295030
 6  20.25422522382238  0.04501993229323 -1.58922471367137
 6  20.95258242714272  1.99776119411941 -0.27197229312931
 1 -3.84231486978698  3.84493574457446  0.90853025472547
 1 -9.79958394089409  4.01985107020702 -0.65536917081708
 1 -10.22702519411941 -2.51635203450345 -0.83806663256326
 1 -2.09733225002500 -0.97329494729473  2.00620066836684
 1 -1.84518385698570  1.63646412261226  0.61828828222822
 1 -0.73904528822882  1.55921423582358  2.84852556365637
 1 -2.29840801470147  2.47988656505651  2.70832695049505
 1 -2.50401273377338  0.83890177547755  3.41121699079908
 1 -1.93708272857286 -1.91984325732573 -0.71619940674067
 1 -1.70903607260726 -0.18623009590959 -1.04081387218722
 1 -0.04294629632963 -0.12234366766677  0.59452531773177
 1 -0.18537225702570 -1.83425975977598  0.46441667376738
 1 -4.06192072247225  5.83359118701870 -0.07245228752875
 1 -5.18046832743274  7.11433410931093  0.84795170127013
 1 -4.58943997219722  5.76896585758576  1.65762353465347
 1 -9.26024903900390  5.98781389058906 -0.30204658045805
 1 -11.96943649724973 -1.48762963046305 -0.65035946314631
 1 -13.18297451245124 -0.32063566376638 -0.86313394979498
 1 -12.99413723682368 -1.93446556195620 -3.03518063516352
 1 -11.46160312411241 -0.56309888838884 -3.42580474997500
 1 -11.38538536293629 -2.24969828682868 -2.30006661406141
 1 -8.68279746304631 -4.90127668326833 -1.76204843284328
 1 -7.93631884648465 -5.86585659825983 -0.76374602650265
 1 -9.33389066906691 -5.23611557275728 -0.14261965246525
 1 -3.16820640204020 -3.83787751265127 -0.42809111591159
 1  3.34948656405640 -3.23859113291329 -1.08686440354035
 1  2.88208249704970 -2.38055397039704 -2.24771500680068
 1  3.88831615931593 -1.00258300670067  0.24226782838284
 1  4.10242329932993 -1.18868234073407 -3.70325044004400
 1  6.22991657005701 -0.63494216961696 -3.64907613151315
 1  5.18968279567957 -2.50262287658766 -2.87965214901490
 1  6.75808623052305  0.75996133353335 -1.95599821702170
 1  5.85436054545455  0.76117166496650 -0.24258852225223
 1  7.01934311321132 -1.26631482858286  0.39534125572557
 1  8.02653805220522 -1.44882367266727 -0.87226670257026
 1  8.65630776217622  0.90247084188419 -1.24749753505350
 1  8.51998049614961  0.92385757395740  0.86266197459746
 1  9.75582802990299 -0.94515195889589 -0.58372553015302
 1  8.57322956725673 -1.50525934163416  1.52166052685269
 1  10.35244131353135 -1.58756263746375  2.06076796819682
 1  8.95416862846285  0.06605538313831  2.03998530363036
 1  10.77031066886689  1.17544030393039 -0.74309148074808
 1  10.59637938453845  1.21656053165317  1.02534641494149
 1  12.32486002820282 -0.71740417991799  0.80141382468247
 1  12.55588774277428 -0.67551577217722 -0.60525352285228
 1  13.38685355535554  1.45629517451745 -0.46896580118012
 1  13.16715876067607  1.36578082938294  1.51113690309031
 1  14.88176960276028 -0.55646316231623 -0.47767595879588
 1  14.54017391729173  0.30263065856586  2.38992176517652
 1  14.60531780528053 -1.33028069997000  1.93753125122512
 1  16.11389842294230 -0.68136171927193  1.93680015771577
 1  15.87154828972897  1.66343633703370 -0.60013998869887
 1  16.41517555015502  1.70900043554356  1.00161848504850
 1  17.74387570267027 -0.35059188858886  0.51312149884988
 1  17.33477100130013 -0.47559939073907 -0.91563294069407
 1  18.33347835493549  2.24638118591859 -1.65063805210521
 1  18.56888688478848  2.19976388328833  0.30655732623262
 1  19.72537509870987  0.17751059725973  0.58696204700470
 1  20.15389370737073  0.78760380998100 -2.81597372257226
 1  21.32332662266226 -0.67329913171317 -1.49969410281028
 1  19.28135086208621 -0.72119983838384 -1.50886896159616
 1  20.89202598119812  2.51593117221722  0.76409716331633
 1  21.87945568586859  1.61094767746775 -0.45247796279628
 1  20.93807045994599  2.76598408560856 -0.96138093439344
 1 -0.35056068116812 -4.36842959235924  1.76993534153415
 1 -1.59619930093009 -4.61282855655566  2.98158879547955
 1 -0.75866988028803 -3.38912738983898  2.90694484768477
 8 -11.96641501580158  3.56984178337834 -0.47457927162716
 1 -13.07871838333834  2.01624286438644 -0.62944354935494

