%nproc=4
%Mem=4GB
# td=(NStates=1) iop(3/107=0140000000,3/108=0140000000) iop(3/107=0140000000,3/108=0140000000) CAM-B3LYP/6-31G(d,p) 

TD

0 1
12 -5.61646315291529  1.22078695299530  0.23437204240424
 6 -4.94081446864686 -2.14862332563256 -0.32750961776178
 6 -3.41299008810881  1.14965525032503  2.76171154445445
 6 -6.24582337803780  4.48004126832683  0.69692990179018
 6 -7.93031879897990  1.15230608130813 -2.27181485498550
 7 -4.39285353865387 -0.30480867266727  1.13314465326533
 6 -4.15628915641564 -1.50948465006501  0.61667401700170
 6 -3.15120824532453 -2.30065336813681  1.45825018871887
 6 -2.93227639863986 -1.33153604450445  2.63241979807981
 6 -3.57879530693069 -0.00935356305631  2.17802238743874
 6 -3.42103514291429 -1.71157459885989  3.96955965536554
 6 -1.96742193539354 -2.63311072037204  0.60339564506451
 6 -0.92390403390339 -3.51819940054005  1.29681326932693
 6  0.28198329882988 -3.84520836153615  0.49106730143014
 8  0.41981204550455 -3.40316763036304 -0.63985021922192
 8  1.05332217791779 -4.73335295259526  1.17182178947895
 7 -4.99384020032003  2.53797317421742  1.49835006670667
 6 -4.07189927972797  2.38320574227423  2.44856545984598
 6 -3.70326983068307  3.69196769896990  3.15942649884988
 6 -4.55214576727673  4.65539706800680  2.58606787808781
 6 -5.36981308550855  3.92038013321332  1.54223031533153
 6 -2.84483984708471  3.94479185498550  4.31018520792079
 6 -4.70178670927093  6.05428284878488  2.95775528032803
 8 -4.19047909590959  6.63314120212021  3.86935083498350
 7 -6.95203900380038  2.61575147094709 -0.67782943924392
 6 -6.91738445324533  3.86059567676768 -0.40250193889389
 6 -8.02134732113211  4.56688341314131 -1.24227833733373
 6 -8.50662011531153  3.61205813571357 -2.16676562096210
 6 -7.83414230473047  2.39439544834483 -1.72488843534353
 6 -8.35659865076508  6.00258016741674 -1.19931944074407
 6 -9.45167953125313  3.78839923812381 -3.15184981778178
 6 -8.98170962466247  4.16881502770277 -4.59095549954996
 7 -6.34420283928393 -0.20706572427243 -1.06832192419242
 6 -7.32950247984799 -0.03533960256026 -2.08062227292729
 6 -7.52799030623062 -1.39769147274727 -2.65055757835784
 6 -6.63732328112811 -2.18328790059006 -2.03298946464646
 6 -5.96900531593159 -1.43616718181818 -1.04494062446245
 6 -8.63449890769077 -1.64072419841984 -3.65259215541554
 6 -6.13362702980298 -3.53379896379638 -1.98552210731073
 8 -6.49295369086909 -4.48979667806781 -2.63561982708271
 6 -5.04629319141914 -3.58555660826083 -0.87210953075308
 6 -5.22321979937994 -4.63763920502050  0.23469714151415
 8 -5.64743051465146 -4.52315132323232  1.31365772917292
 8 -4.86173587178718 -5.81375257165717 -0.30994413901390
 6 -5.21510907510751 -6.91559341264126  0.61379320912091
 6  2.23739471267127 -5.03186430663066  0.48115206960696
 6  3.37231176617662 -4.01370153105311  0.87362526232623
 6  3.89681907210721 -3.11408427852785  0.04068770377038
 6  3.66739107800780 -2.92382732403240 -1.47778728322832
 6  5.17384381018102 -2.32942799039904  0.57270106890689
 6  6.49553442474247 -2.69824274947495  0.01884335173517
 6  7.56446176977698 -1.81078043354335  0.49332502300230
 6  8.92172299359936 -1.99767460106011 -0.07852563506351
 6  9.50045642734274 -3.38416905730573  0.10833737603760
 6  9.96716729582958 -0.89713995139514  0.34443695919592
 6  11.31960926332633 -0.93069267616762 -0.17677644384438
 6  12.24713240184018  0.24203883138314  0.13288013561356
 6  13.58702115791579  0.32123699359936 -0.48680344354435
 6  14.54248254725472 -0.82728213081308 -0.17086123702370
 6  14.30267620722072  1.73899007060706 -0.08911816661666
 6  15.61750594099410  2.07500552875288 -0.89732472747275
 6  16.17253983838384  3.47541229402940 -0.57575818901890
 6  17.40755600470047  3.85877371897190 -1.36577051225123
 6  17.18011060076007  3.98885377707771 -2.80638286248625
 6  17.96443584968497  5.11839710501050 -0.80987044594459
 1 -2.73573929672967  1.18627290269027  3.63144361276128
 1 -6.60462844164416  5.57700308070807  0.87659665136514
 1 -8.73786419361936  0.96822712561256 -3.02723820262026
 1 -3.66154721952195 -3.25424073947395  1.82670073087309
 1 -1.90682780668067 -0.89717737933793  2.66497777387739
 1 -2.82366214531453 -2.64451761296130  4.26136968096810
 1 -3.40472126482648 -0.70537044144415  4.60867289708971
 1 -4.44872738443844 -1.88625770667067  4.02326627712771
 1 -2.32858817251725 -3.33266278357836 -0.26012663646365
 1 -1.42666049844985 -1.77307642394239  0.33230135173517
 1 -0.59419485298530 -3.22373366896690  2.25855007370737
 1 -1.32891761336134 -4.34242137333733  1.54701649964996
 1 -1.87061717551755  3.59713923832383  4.02862877257726
 1 -2.82853384348435  5.00464767076708  4.68638489618962
 1 -3.11599459445945  3.30895189268927  5.10736574257426
 1 -5.57929099299930  6.55523971837184  2.40470579197920
 1 -10.29016815031503  3.12189284638464 -3.33915716741674
 1 -10.13555435333534  4.63604744884488 -3.06814710541054
 1 -9.93009280908091  4.33362177617762 -5.28321352365237
 1 -8.24104361376138  5.02336208160816 -4.55074502950295
 1 -8.37488733773377  3.23706306510651 -5.05708563336334
 1 -8.32380997059706 -1.02649319221922 -4.53129412771277
 1 -8.74465544854485 -2.58947235233523 -3.95876851385139
 1 -9.44659473897390 -1.19105592899290 -3.18623553025303
 1 -4.15825318271827 -3.73564839143914 -1.46045933283328
 1  2.55504663766377 -6.13051099409941  0.99467542444244
 1  1.91839258265827 -5.06456343244324 -0.51782523212321
 1  3.84395651795180 -3.96024530633063  1.85716072367237
 1  2.78501348804881 -3.33007862896290 -1.78670121112111
 1  3.79489410271027 -1.91683524282428 -1.77580005050505
 1  4.49622179617962 -3.55467919711971 -2.16105503140314
 1  4.81885192609261 -1.28776520052005  0.40898278177818
 1  5.02166069336934 -2.33102473487349  1.56018089838984
 1  6.66911443814381 -3.66078927102710  0.49804768876888
 1  6.60042020242024 -2.65829343834383 -1.10972156765677
 1  7.40756968826883 -0.76785011011101  0.46242348784878
 1  7.72832493539354 -2.02978956205621  1.63431781708171
 1  9.15129923922392 -2.17317559275928 -1.16774011211121
 1  8.78266278497850 -4.06175494689469 -0.42294608700870
 1  10.49805914671467 -3.71689589168917 -0.35962607610761
 1  9.74495355675568 -3.72570366186619  1.32360280298030
 1  9.54879403000300  0.20241596779678  0.02707807160716
 1  10.04314441194119 -1.11613814771477  1.44463400340034
 1  11.59095423672367 -1.96933696559656  0.27708333513351
 1  11.27015310201020 -1.01890479537954 -1.44756609020902
 1  11.74762579607961  1.10506493569357 -0.14412396759676
 1  12.40128495179518  0.32233342474247  1.31834011421142
 1  13.24819161986199  0.13781821412141 -1.53142538123812
 1  14.69978931723172 -0.85141335403540  0.86892257225723
 1  14.09151472247225 -1.82584160046005 -0.65953227472747
 1  15.45148613701370 -0.66028922712271 -0.64329122162216
 1  13.45090328452845  2.57479209830983 -0.28425021272127
 1  14.64858155845585  1.61255154435444  0.89216643054305
 1  16.43614527032703  1.30871948464846 -0.66021251195120
 1  15.55968155155516  1.95749966276628 -1.92413379307931
 1  15.33525493009301  4.30920629862986 -0.88108010611061
 1  16.32840561066107  3.65562220362036  0.52864276467647
 1  18.16462014341434  3.10569206040604 -1.29324840444044
 1  16.29352007240724  4.74863139203920 -2.87098945874587
 1  18.05270119361936  4.24468398169817 -3.33948855395540
 1  16.97111731193120  3.21279234923492 -3.31082911751175
 1  18.00060610781078  5.19635085258526  0.43567523172317
 1  18.82636015831583  5.51930608280828 -1.19933684808481
 1  17.30782233313331  5.99369887298730 -0.85703976527653
 1 -5.14852015341534 -7.75148458155816 -0.03490702840284
 1 -6.28161259155916 -6.75064215081508  1.02723623112311
 1 -4.55504367296730 -6.87418899449945  1.43885834243424
 8 -7.78272586418642  6.79480598139814 -0.52627041104110
 1 -9.17311560866087  6.21239688458846 -2.01281696449645

