%nproc=4
%Mem=2GB
# td=(NStates=1) iop(3/107=0140000000,3/108=0140000000) iop(3/107=0140000000,3/108=0140000000) CAM-B3LYP/6-31G(d,p) 

TD

0 1
12 -6.79217178927893  0.59472861696170  0.16834445394539
 6 -4.49052615911591 -2.02761118291829  0.52410268726873
 6 -4.20389220462046  2.81658329142914  0.82019490109011
 6 -8.96327903260326  3.15938996309631  0.02155265356536
 6 -9.40831892949295 -1.76519954955496 -0.59621968066807
 7 -4.71039611151115  0.42971236893689  0.67570660276028
 6 -4.12518978457846 -0.84861456825683  0.89991054645465
 6 -2.54717813641364 -0.53957571677168  1.02276433873387
 6 -2.54325429122912  1.00007015581558  1.35253741624162
 6 -3.81119738263826  1.45470555575558  0.87325209990999
 6 -2.26975326102610  1.25517731363136  2.65873043584358
 6 -1.63123187158716 -0.82737530093009 -0.17657633133313
 6 -0.08135625392539 -1.10895260186019  0.16719579307931
 6  0.78071915111511 -1.23401063796380 -0.99273744754475
 8  0.73521358945895 -0.76030864336434 -2.07183817401740
 8  1.83193347994799 -2.00141043964396 -0.54326924942494
 7 -6.50877261946195  2.65081545154515  0.25985973387339
 6 -5.41858241914191  3.38595723892389  0.51137743394339
 6 -5.68450266546655  4.95132481728173  0.51346621522152
 6 -7.01732244564456  4.96397248774878  0.47035361866187
 6 -7.57946965086509  3.54173298169817  0.13167799919992
 6 -4.54606952725272  6.09240667116712  0.68253592159216
 6 -7.94681624292429  6.09819673977398  0.48919844354435
 8 -7.44982889908991  7.12869448604861  0.36314417121712
 7 -8.72497605110511  0.60678153735374 -0.37832048114812
 6 -9.42617629002900  1.75358009330933 -0.37191824412441
 6 -10.80902753305330  1.65298516961696 -0.84971075227523
 6 -11.01790614811481  0.21649255365537 -0.86743759925993
 6 -9.70015167846785 -0.39350751395140 -0.61275335203520
 6 -11.83464023932393  2.69396558965897 -1.22069672047205
 6 -12.16410953145314 -0.52386594889489 -1.43024115781578
 6 -12.05030189228923 -1.00227239243924 -2.98630142484248
 7 -7.16565304820482 -1.56113867516752  0.08776613211321
 6 -8.24716737833783 -2.28388838553855 -0.32452565056506
 6 -7.75710329542954 -3.62902022442244 -0.28045905600560
 6 -6.27754337553755 -3.70573973487349 -0.09041730233023
 6 -6.08785507420742 -2.33089190369037  0.20930711501150
 6 -8.63928245174517 -4.89573695149515 -0.60445326122612
 6 -5.15730193469347 -4.58492429052905  0.26390441614161
 8 -4.95231698039804 -5.68393893219322  0.04167467406741
 6 -4.08328205360536 -3.43457401660166  0.72591723892389
 6 -3.57652116301630 -3.95121129662966  1.93785349834983
 8 -4.21146638673867 -4.25970270507051  2.88366703650365
 8 -2.24073574847485 -3.66405271057106  2.11254119331933
 6 -1.75075359745975 -4.14331942204220  3.25933035823582
 6  2.98864075687569 -2.37095227212721 -1.29587083118312
 6  4.15824959235924 -1.37629463056306 -1.03150868316832
 6  5.12781353675368 -1.12291916331633 -1.90532673427343
 6  5.09211319511951 -1.59059219391939 -3.31343832603260
 6  6.21483530813081 -0.18833648654865 -1.51671823032303
 6  7.35046374037404 -0.77645342744274 -1.25722245954595
 6  8.55612817311731  0.12735837043704 -0.62300078057806
 6  9.97961105050505 -0.54195111541154 -0.23178148384839
 6  9.54687220352035 -1.17259607430743  1.06087045584558
 6  11.04201653165317  0.47776263046305 -0.15481064266427
 6  12.47972324282428  0.06557786498650 -0.13408509730973
 6  13.49850139273927  1.10841811651165  0.32003490189019
 6  14.96247258245825  0.52381565966597  0.55328999109911
 6  15.00073506160616  0.03792151165116  2.04860478447845
 6  15.94770439883989  1.58085298729873  0.31614481978198
 6  17.27839731783178  0.88086331073107  0.03631675777578
 6  18.49959950735074  1.81827901910191 -0.19517966476648
 6  20.00691289238924  1.15209370417042 -0.17257734143414
 6  20.20514031533153  0.34791022132213 -1.39009480068007
 6  21.00494766366637  2.29150056805681 -0.05025012091209
 1 -3.22207284558456  3.79633088408841  0.81500090179018
 1 -9.63958794129413  3.90551963706371 -0.44556819071907
 1 -10.01626411801180 -2.49380978027803 -1.11682450835084
 1 -2.02125464226423 -1.02851046884688  1.99047909620962
 1 -1.90132947154716  1.54149462566257  0.69486593999400
 1 -1.12139352305231  1.24987330173017  3.33407411851185
 1 -2.70203837773777  2.30261883828383  2.69148526632663
 1 -3.02113444594459  0.62473035833583  3.30136600570057
 1 -2.16098511881188 -1.96507778077808 -0.52692047884788
 1 -1.81028619761976  0.13586211331133 -0.89329912071207
 1  0.12000999929993 -0.07917935123512  0.66613247844785
 1 -0.16136985678568 -1.68807514131413  1.12275250735074
 1 -3.47917244764476  6.11402923082308  0.01692665036504
 1 -4.85450573117312  7.19214189008901  0.67364427052705
 1 -4.48901993019302  5.87680664166417  1.85899367166717
 1 -9.16645966006601  5.96832194139414  0.25754937913791
 1 -12.31111066466647 -1.34010487798780 -0.86588101530153
 1 -13.42930914591459 -0.11292489268927 -1.21249888628863
 1 -13.01362918601860 -1.85059717511751 -3.28948606570657
 1 -12.05553251705171  0.13086050755076 -3.43486565606561
 1 -10.91208803320332 -1.39385270227023 -3.38159476687669
 1 -9.13356253955396 -4.68248480408041 -1.38756098409841
 1 -7.84610982558256 -5.73371338393839 -0.88629828172817
 1 -8.75780306030603 -5.19664162536254  0.71838644814481
 1 -3.43556313771377 -3.73029675457546 -0.23638194499450
 1  3.32991460686069 -3.54777205100510 -1.07267298439844
 1  2.59471376017602 -2.43649956495650 -2.47279751505151
 1  4.22404973267327 -0.87921066946695  0.13769737133713
 1  4.10911396839684 -0.64325779827983 -3.95430554555456
 1  6.44023760216022 -1.39724840024002 -3.63469469336934
 1  4.64612844024402 -2.80488310261026 -3.25812999679968
 1  6.09258968086809  0.57388272567257 -2.57923054025402
 1  6.00564567396740  0.52913846164616 -0.97096135953595
 1  7.16017719661966 -1.61161935903590 -0.83468174657466
 1  7.84670006840684 -0.98498728902890 -1.94678415431543
 1  8.58547067846785  0.67614820962096 -1.30016280158016
 1  7.87700619871987  0.70670585878588  0.20350605900590
 1  10.19977242434243 -1.17740518421842 -0.96788394599460
 1  8.75340758505851 -2.17242605830583  1.14846320712071
 1  10.41254732413241 -1.84997887908791  1.42933482488249
 1  9.13272648424842 -0.75904712711271  1.65711701680168
 1  10.68386202400240  1.44833759365937 -0.79136630823082
 1  10.90560030663066  0.90896977257726  0.61026490679068
 1  12.45532307450745 -0.73924636413641  0.37533121642164
 1  12.59956211021102 -0.03407162776278 -1.21437443494349
 1  13.70313518351835  1.93663320832083 -0.34900380498050
 1  13.15764780958096  1.64268852015202  1.26001179057906
 1  14.66869829562956 -0.32049956595660 -0.07703589478948
 1  14.75073497339734  0.81674206970697  2.79511228422842
 1  14.13147042054205 -0.80574824672467  2.17056455455546
 1  15.79834686778678 -0.04564814791479  2.11674815251525
 1  15.74008514341434  2.43333332673267 -0.71641161586159
 1  16.05867990059006  2.20148968446845  1.31606993019302
 1  17.46702801790179  0.57660083068307  1.00676086278628
 1  16.96747427162716  0.18267643684368 -0.89291066846685
 1  18.37873288038804  2.34164071187119 -1.23163615191519
 1  18.26203619971997  2.57302120902090  0.57033370387039
 1  19.94897745894590  0.40687353355335  0.73558690949095
 1  19.44565288328833  0.56790183978398 -2.27002912811281
 1  21.30832512251225  0.51724992319232 -1.57264139753975
 1  19.36390911791179 -0.54581229962996 -1.73247132183218
 1  20.79388616721672  2.80754033313331  1.24618537213721
 1  22.02139988028803  1.92791937463746 -0.07202991799180
 1  20.93699035193519  3.22330981818182 -0.97853264956496
 1 -0.71038666376638 -4.37691044044404  2.66804515251525
 1 -2.10662034303430 -4.93033030673067  3.48750938753875
 1 -1.60911492479248 -3.37817629472947  4.15396955015502
 8 -11.53419179347935  3.84760956015602 -0.96474828852885
 1 -12.85548606010601  2.27883912401240 -1.68175878087809

