%nproc=4
%Mem=2GB
# td=(NStates=1) iop(3/107=0140000000,3/108=0140000000) iop(3/107=0140000000,3/108=0140000000) CAM-B3LYP/6-31G(d,p) 

TD

0 1
12 -6.82586515861586  0.50552969706971  0.05972359185919
 6 -4.61401850835083 -1.98798722052205  0.42862313931393
 6 -4.24430624602460  2.74615624872487  0.97931081268127
 6 -8.92947565226523  3.10811483558356 -0.30322982468247
 6 -9.41926002360236 -1.83606663626363 -0.87711777047705
 7 -4.70249532143214  0.37645704340434  0.48781781388139
 6 -4.03482074767477 -0.73886359315932  0.58689924532453
 6 -2.61631505010501 -0.50105186438644  0.90067212951295
 6 -2.47506747254725  0.96308645744574  1.40067222972297
 6 -3.81926818971897  1.46544662986299  0.94240901560156
 6 -2.14914119981998  1.22865466136614  2.88361292409241
 6 -1.61846059445945 -0.96720928432843 -0.13219189288929
 6 -0.23565168346835 -1.08801050765077  0.48481755525553
 6  0.87788886808681 -1.06209344624462 -0.59900807460746
 8  0.72141220932093 -0.96055866836684 -1.84085507570757
 8  1.98548883548355 -1.82522282088209 -0.26587150965097
 7 -6.68419016121612  2.51255162516252  0.36704045194519
 6 -5.52404296519652  3.25769441264126  0.65040133633363
 6 -5.96474068926893  4.66878656345635  0.69774464306431
 6 -7.25766648004801  4.82275836633663  0.40768735203520
 6 -7.80837254115412  3.44849365776578  0.06980181158116
 6 -5.02595751605161  5.76501393189319  1.21329899789979
 6 -8.09091065236524  6.06810373047305  0.39958948264827
 8 -7.63370728692869  7.18745036163616  0.46581443824382
 7 -8.79508306180618  0.65486634583458 -0.56501915101510
 6 -9.58781245364536  1.80765550085008 -0.58535958825883
 6 -10.82811944224422  1.54219409050905 -1.10235601680168
 6 -10.97400175767577  0.09923082748275 -1.16889774527453
 6 -9.67918958225822 -0.36604476767677 -0.85970804750475
 6 -11.94661143644364  2.54497069016902 -1.19189384018402
 6 -12.20415353585359 -0.70475403770377 -1.27925605930593
 6 -12.34050091219122 -1.08778094329433 -3.04069686438644
 7 -6.94353083598360 -1.28714127542754 -0.20139278377838
 6 -8.02643530513051 -2.23984398109811 -0.60205340334033
 6 -7.59043662876288 -3.75074239663966 -0.46445745584558
 6 -6.29564518571857 -3.71067022792279  0.01588332773277
 6 -5.92503879257926 -2.13517233173317  0.06576276057606
 6 -8.43648217171717 -4.85942332013201 -0.65214803070307
 6 -5.01615782028203 -4.35978177627763  0.21838986468647
 8 -4.87445919461946 -5.56824736303630 -0.04526401980198
 6 -3.94716844224422 -3.50408096729673  0.62845749294929
 6 -3.52231574247425 -3.60071624712471  2.02726243924392
 8 -3.92799803990399 -3.96110284508451  3.03420209000900
 8 -1.99217089198920 -3.65653195849585  1.85676561576158
 6 -1.25940446254625 -4.05930102020202  2.98051247644764
 6  2.97912980578058 -2.07350252715272 -1.07084832893289
 6  4.27433120052005 -1.04951195229523 -0.96051158345835
 6  5.13610436583658 -0.55351222262226 -1.80961716331633
 6  5.36270025382538 -0.89613274797480 -3.33424040624062
 6  6.22830665526553  0.31729407650765 -1.30308686718672
 6  7.53729242324232 -0.48967474957496 -0.66909364666467
 6  8.58261082138214  0.46375200980098 -0.14588306880688
 6  9.82245533493349 -0.35126204650465  0.45325702000200
 6  9.55644316061606 -1.10006882158216  1.76536090489049
 6  11.08485081508151  0.68944379857986  0.50076491489149
 6  12.39720499099910 -0.03715240804080  0.61982029322932
 6  13.65388693129313  0.90575785048505  0.81076397479748
 6  14.93686002120212  0.31535481358136  0.58844350645065
 6  15.19324431253125 -0.48635091559156  1.94065398939894
 6  15.96979660806081  1.26258116011601  0.20017322262226
 6  17.26538601670167  0.59402462686269 -0.22903977787779
 6  18.50402995039504  1.58575576677668 -0.40417056385639
 6  19.71705390649065  0.75683417821782 -1.08691877557756
 6  19.59719952125213  0.38195362566257 -2.64542033323332
 6  20.93296046494650  1.68136955495550 -0.77925302120212
 1 -3.26857749604961  3.56897814881488  1.21343074477448
 1 -9.68564254675467  4.00759984508451 -0.70567420132013
 1 -10.16391888348835 -2.49549994929493 -1.06238906480648
 1 -2.25423794059406 -1.15137275507551  1.79943999229923
 1 -1.65985532413241  1.59544002020202  0.94913136653665
 1 -1.31096247994799  0.79854816921692  2.93484419551955
 1 -1.97818599249925  2.06965554195420  3.46824294209421
 1 -2.65304763726373  0.57058494379438  3.70141601070107
 1 -2.11822084238424 -1.82274354735474 -0.57625541234123
 1 -1.86405157415742 -0.35202667556756 -0.96934672547255
 1  0.07728572687269 -0.13248468176818  1.35589145434543
 1 -0.07230094989499 -2.00314664846485  1.11877210931093
 1 -4.07411194159416  6.22339016691669  0.53975893359336
 1 -5.43558383898390  6.79645232113211  1.51052795889589
 1 -4.52094312251225  5.37077603860386  2.30640841314131
 1 -9.10132314641464  5.81931704090409  0.07822144634464
 1 -12.49615916951695 -1.43424429192919 -0.78420284748475
 1 -13.14521073607361 -0.01672527272727 -1.25030266666667
 1 -12.92716053915392 -1.84532664806481 -3.11720883798380
 1 -12.35683264706471 -0.12140471897190 -3.70641281078108
 1 -11.48267509190919 -1.65637895489549 -3.10868747614762
 1 -8.99264844814481 -5.18926548214822 -1.66038826682668
 1 -7.90927614221422 -5.87711772437244 -0.32930258215821
 1 -9.22543982398240 -4.71028298949895  0.35880048954896
 1 -3.25371495289529 -3.32051577647765 -0.22846115291529
 1  3.21005262066207 -3.02623989778978 -0.88261397849785
 1  2.44652894169417 -1.72803871887189 -1.98832906820682
 1  4.15550287798780 -1.05460820922092  0.09454305590559
 1  4.69390244724472 -0.28166163866387 -4.13628374337434
 1  6.47553113151315 -0.38615729112911 -3.46189741364136
 1  5.32880670807081 -1.90795340964096 -3.70642482628263
 1  6.59784020592059  0.99268460586059 -2.06582920012001
 1  5.52192730213021  0.94760030783078 -0.47640190359036
 1  7.20514169306931 -1.20711890899090  0.25273699529953
 1  8.16936233463346 -1.38824761506151 -1.32608208410841
 1  8.79117124852485  1.16470706550655 -1.04511729702970
 1  7.98037653575358  1.38762395059506  0.56413212161216
 1  10.25985843294329 -1.09587703140314  0.05347819021902
 1  8.64921716601660 -1.82229104480448  1.93766212701270
 1  10.52787885728573 -1.49207308850885  1.35844773617362
 1  9.43747695929593 -0.33293451585158  2.55060636573657
 1  10.94898853665367  1.22290505040504 -0.50639781138114
 1  10.85032477907791  1.29988886448645  1.46673055335534
 1  12.15351289348935 -0.75537797729773  1.36627031033103
 1  12.49963211721172 -0.58294651525152  0.13002000450045
 1  13.61197606760676  1.33484302930293  0.01948304370437
 1  13.71583362816282  1.54012826412641  1.52423821322132
 1  14.69896132193219 -0.54528204420442 -0.17664585578558
 1  15.31462136203620  0.53240363586359  2.75219799279928
 1  14.29295656915692 -1.19274694659466  2.14187168526853
 1  16.26806383948395 -0.83947753085308  1.88203468116812
 1  15.90896203110311  2.13824381778178 -0.70765073977398
 1  15.94547858045805  1.97605714121412  0.79325764896490
 1  17.58425974107411 -0.05885271467147  0.98747893459346
 1  17.30382790699070 -0.45861769256926 -1.03070444784478
 1  18.05223023012302  2.26088263606361 -1.17359034733473
 1  18.79576957305731  1.98446235313531  0.45130180068007
 1  19.82460502170217 -0.20758791259126 -0.67708435763576
 1  19.38915723372337  1.07351240084008 -3.44359648484849
 1  20.25963025302530  0.00919911811181 -2.75783991739174
 1  18.97196992399240 -0.24012173057306 -2.92016009070907
 1  20.87846462506251  2.30497007610761  0.36724747834783
 1  22.11713945424543  0.91641822452245 -0.83579629462946
 1  21.06117277017702  2.84023151035103 -1.44061885818582
 1 -0.23029865496550 -5.03671642104211  2.48289663766377
 1 -2.22516219721972 -4.81447872157216  4.14986562316232
 1 -1.02741675497550 -3.01441991909191  3.61506565976598
 8 -11.75509388368837  3.69547434663466 -1.15934774847485
 1 -12.90102061356136  2.40322156225622 -1.61759236423642

