%nproc=4
%Mem=4GB
# td=(NStates=1) iop(3/107=0140000000,3/108=0140000000) iop(3/107=0140000000,3/108=0140000000) CAM-B3LYP/6-31G(d,p) 

TD

0 1
12 -5.65805731233123  1.21401627592759  0.19891849704971
 6 -4.96590697789779 -2.11299976327633 -0.35521238803880
 6 -3.33601239033903  1.24252453725373  2.66111148444844
 6 -6.15377417311731  4.58309157335734  0.60791099989999
 6 -7.97921368846885  1.14628547924792 -2.36472414591459
 7 -4.46561081438144 -0.28500669246925  1.07383872267227
 6 -4.27865139263926 -1.60776447804780  0.75659800940094
 6 -3.21163428792879 -2.32186548934893  1.48735309900990
 6 -2.96659983098310 -1.26230912181218  2.59707626372637
 6 -3.68345577297730 -0.02387501520152  2.17030161536154
 6 -3.39548258765877 -1.65887932933293  3.96240894029403
 6 -2.00238543174317 -2.62182959225923  0.63000830633063
 6 -1.00067171067107 -3.39146672727273  1.44290787878788
 6  0.18322342284228 -3.79036287698770  0.57487568226823
 8  0.41734179847985 -3.37651496509651 -0.53004923912391
 8  1.04352119781978 -4.61482109940994  1.20631523882388
 7 -4.94326514281428  2.68847822472247  1.39025925762576
 6 -3.93870596039604  2.48656607830783  2.40797140044004
 6 -3.74278378207821  3.64775327752775  3.17307786398640
 6 -4.47699825252525  4.66339786808681  2.54140341164116
 6 -5.35162126632663  3.96808490369037  1.46623271557156
 6 -2.81125648874887  3.79804718051805  4.33717790719072
 6 -4.57237376797680  6.03438085858586  2.87785729052905
 8 -3.91416146414641  6.61504939293929  3.73382728262826
 7 -6.92475627552755  2.67143703950395 -0.71268292459246
 6 -6.99991270607061  3.95558517571757 -0.38443013171317
 6 -8.04396958335833  4.68863558835884 -1.15523963346335
 6 -8.56458591189119  3.61145807570757 -1.93159210361036
 6 -7.88876776727673  2.37645365416542 -1.70603655015502
 6 -8.42746573747375  6.02595250465047 -1.09234874367437
 6 -9.56294065736574  3.66026642484248 -3.10452508530853
 6 -8.91195264896490  3.95725387158716 -4.50857726172617
 7 -6.36968538753875 -0.13462848054805 -1.08009310131013
 6 -7.33555308490849 -0.05508157675768 -2.14621883258326
 6 -7.46121362856286 -1.34307601120112 -2.69333185578558
 6 -6.60557010581058 -2.22426199799980 -2.06480264596460
 6 -5.95104351975198 -1.39895346044604 -1.04189031943194
 6 -8.53764922272227 -1.61780190619062 -3.72469936613661
 6 -6.08836250335033 -3.57097268116812 -2.02683623872387
 8 -6.46535093059306 -4.51988968736874 -2.62807907300730
 6 -4.99339790189019 -3.52250030263026 -0.86967928772877
 6 -5.31177865526553 -4.64789023012301  0.14159783158316
 8 -5.63080885248525 -4.42315132323232  1.24271063446345
 8 -4.94733443164316 -5.87021821822182 -0.36957010161016
 6 -5.27971553575358 -7.03023487678768  0.40292212201220
 6  2.29061003420342 -5.08226934713471  0.52547650205021
 6  3.43197773277328 -4.17788794969497  0.81632953275328
 6  4.01083047324733 -3.23917678777878  0.03959759475948
 6  3.79168350725072 -3.14199914121412 -1.37362686718672
 6  5.20725715151515 -2.44289933753375  0.57142094089409
 6  6.50066493779378 -2.80841376657666  0.05495696309631
 6  7.70919624322432 -1.92259161466147  0.50114580508051
 6  9.04015483678368 -2.07244207780778 -0.09499728222822
 6  9.70170655235524 -3.40365100550055  0.20268681098110
 6  9.92125270437044 -0.88645888328833  0.45920843634363
 6  11.35634293669367 -0.91769137603760 -0.25641440764076
 6  12.27669535813581  0.30987561506151  0.11778862646265
 6  13.59831228702870  0.44268913881388 -0.50702546574657
 6  14.43286158515852 -0.79379878247825 -0.20211436233623
 6  14.23204914451445  1.75888205980598  0.04643538873887
 6  15.47559174957496  2.21489951815182 -0.83528852385239
 6  16.03916650105010  3.54974972777278 -0.49674028722872
 6  17.37223247234724  3.85028286988699 -1.37046098129813
 6  16.96901949164916  3.99704459615962 -2.84508673287329
 6  18.11531093719372  5.13184845014501 -0.94400385928593
 1 -2.63583930673067  1.18030230563056  3.31412188058806
 1 -6.39288726752675  5.52783816421642  0.86959595129513
 1 -8.71109151635163  1.00733103600360 -3.21731721052105
 1 -3.59870093489349 -3.23021833723372  1.67298535933593
 1 -2.02088921282128 -1.27158482008201  2.55391666776678
 1 -3.04391417051705 -2.65035819701970  4.37503104710471
 1 -3.08243903660366 -0.92360226462646  4.79689171897190
 1 -4.41022353405341 -1.83139222012201  4.05738968946895
 1 -2.32654796849685 -3.02572208950895 -0.33217384118412
 1 -1.49484731713171 -1.62350146644664  0.48058618021802
 1 -0.59791522502250 -2.82240353595360  2.29001322002200
 1 -1.30395511711171 -4.46450358155816  1.54768656665667
 1 -1.82366248004801  3.31108063246325  4.10209611931193
 1 -2.54653564366437  5.05653285928593  4.47022328002800
 1 -3.41622461746175  3.34850584808481  5.24992999899990
 1 -5.22261532543254  6.75497969236924  2.36009133053305
 1 -10.07933706720672  2.71408206530653 -3.09276252795279
 1 -10.22942374027403  4.75895974007401 -3.01485177587759
 1 -9.60461026082608  4.38487690169017 -5.24214941724172
 1 -8.09495900530053  4.82520226562656 -4.19720967596760
 1 -8.17836768576858  3.26694605340534 -4.78591851665167
 1 -8.63545113471347 -1.11951249414942 -4.71002200050005
 1 -8.43976495949595 -2.86917032213221 -3.66775941294129
 1 -9.58408848834884 -1.51746857025703 -3.24977188388839
 1 -4.02758011541154 -3.68653347994799 -1.33081636853685
 1  2.34419555255526 -6.06442438543854  1.05931188808881
 1  2.05475621902190 -4.91884886098610 -0.64463791339134
 1  3.66210833313331 -4.07252653445344  1.81640664826483
 1  2.77336232293229 -3.67052267336734 -1.65434797579758
 1  3.56131074437444 -2.06336989628963 -1.69265173567357
 1  4.67187936193619 -3.56774050325032 -2.00967989388939
 1  4.88822886378638 -1.34686111011101  0.37022890639064
 1  4.98835736303630 -2.52713434583458  1.72647752805281
 1  6.82322984968497 -3.90314350645065  0.20738862286229
 1  6.30208036843684 -2.78206581558156 -0.94509510501050
 1  7.40551948324832 -0.93159648474848  0.34018126362636
 1  7.82132423532353 -2.14071065416542  1.54826921222122
 1  8.90934504380438 -1.77351562676268 -1.07809114721472
 1  9.03057757645765 -4.21803057445745 -0.13932772517252
 1  10.69812915371537 -3.68315251735174 -0.19209932343234
 1  9.67320638203820 -3.51023211471147  1.31162160486049
 1  9.48378752935294  0.19721544774477  0.30580594439444
 1  9.88267836533653 -1.10133666756676  1.66323586358636
 1  11.84672981428143 -2.04559459135914 -0.07642201540154
 1  11.40689677637764 -0.92394529942994 -1.32768410201020
 1  11.66696773027303  1.12027645684568 -0.09981953715371
 1  12.46267109040904  0.07185837723772  1.28444672487249
 1  13.55536233693369  0.44211864416442 -1.64601684038404
 1  14.81349068736874 -0.87224543724372  0.79390507050705
 1  13.83358892989299 -1.68182719901990 -0.54058037953795
 1  15.36525751415142 -0.81266446464646 -0.65282217471747
 1  13.51527972217222  2.59433405250525 -0.10006179387939
 1  14.53038973927393  1.68368865806581  1.11704891879188
 1  16.20335199099910  1.39810842354235 -0.90369686038604
 1  14.90749633303330  2.12868678147815 -1.74177555725573
 1  15.20568197279728  4.34227960596060 -0.60578257635764
 1  16.48886165626563  3.50162680408041  0.58797869826983
 1  18.01999568096810  2.90310180138014 -1.48866794639464
 1  16.32291301170117  4.79394592349235 -3.07418977877788
 1  17.95561148464846  4.16956646994699 -3.53659826492649
 1  16.55528572877288  2.99525059505951 -3.14151218581858
 1  18.63218926612661  5.20868208570857 -0.00209854565457
 1  18.95774329662966  5.32286643884388 -1.53314022842284
 1  17.33987553845385  5.91515101820182 -0.92863692499250
 1 -5.49943524492449 -8.00742017511751 -0.60096363406341
 1 -6.29344377467747 -6.79916700330033  0.95096860436044
 1 -4.26712488108811 -7.45075665126513  1.10730518711871
 8 -7.91925951755176  6.76819332013201 -0.32396018001800
 1 -9.35227352445244  6.24632027692769 -1.83352903570357

