%nproc=4
%Mem=2GB
# td=(NStates=1) iop(3/107=0140000000,3/108=0140000000) iop(3/107=0140000000,3/108=0140000000) CAM-B3LYP/6-31G(d,p) 

TD

0 1
12 -6.74437700980098  0.49697884198420  0.23481110061006
 6 -4.51993910041004 -2.16024444624462  0.53346362336234
 6 -4.21917373277328  2.75038667176718  1.02627550915092
 6 -8.81880458515852  3.25339936403640 -0.11642114381438
 6 -9.15104320192019 -1.51192422202220 -0.82925298399840
 7 -4.80567563946395  0.27581697939794  0.74643367546755
 6 -3.97203446904691 -0.84626433323332  0.75407596299630
 6 -2.60976439503950 -0.60607236643664  1.12227428972897
 6 -2.52304227002700  0.82552270107011  1.21097325982598
 6 -3.89455571847185  1.40093017821782  0.86747152185219
 6 -1.88076436213621  1.30070186608661  2.49738430123012
 6 -1.66374512291229 -1.26781934533453  0.04395572187219
 6 -0.27077519581958 -1.33624533113311  0.53375244874487
 6  0.65999707890789 -1.51788902580258 -0.55742391619162
 8  0.74722479057906 -1.01751436393639 -1.60776176637664
 8  1.77051733833383 -2.24519481808181 -0.27516243874387
 7 -6.45150689288929  2.57384775477548  0.19286303420342
 6 -5.37816837773777  3.25489413261326  0.67581387758776
 6 -5.66165038023802  4.70914059885988  0.85073994259426
 6 -6.95038575197520  4.88527461796180  0.52107869116912
 6 -7.51555325922592  3.52625143354335  0.12225705710571
 6 -4.51769668996900  5.60745817631763  0.99270693869387
 6 -7.58801036233623  6.15534245434543  0.22968249194919
 8 -7.09044296049605  7.14709632623262  0.41656951375138
 7 -8.63317687118712  0.85476633583358 -0.31238388748875
 6 -9.35663933633363  1.96459119441944 -0.44587563986399
 6 -10.76802343264326  1.63973384448445 -0.82611839303930
 6 -10.88413277077708  0.34057496189619 -1.03019387488749
 6 -9.33478514181418 -0.20102826602660 -0.57172924962496
 6 -11.74918169346935  2.83653984708471 -1.22472712351235
 6 -12.05747886838684 -0.52857641994199 -1.44297243094309
 6 -11.99354621672167 -0.79896206140614 -2.89894268896890
 7 -7.00621710461046 -1.42083464476448  0.03329068456846
 6 -7.99080174177418 -2.19904990169017 -0.42500569856986
 6 -7.67947553265327 -3.54604192659266 -0.44102511261126
 6 -6.41663728492849 -3.63663282418242 -0.17664592519252
 6 -5.96440272897290 -2.20345916041604  0.11938812311231
 6 -8.47149567306731 -4.51414879267927 -0.86331914781478
 6 -5.18368457295730 -4.48277407550755 -0.08494046834683
 8 -4.98482023072307 -5.62760329862986 -0.19571906530653
 6 -4.02784651005100 -3.56082664186419  0.53515816301630
 6 -3.76200971187119 -3.86415259075908  1.85975568856886
 8 -4.55189042914292 -4.06619335413541  2.89552822262226
 8 -2.45421709660966 -3.82603890919092  1.93046298549855
 6 -1.60292881498150 -4.32543763386339  3.22385681088109
 6  2.91512340514051 -2.46556173307331 -1.29345058915892
 6  3.97219098649865 -1.50025702680268 -0.99133466576658
 6  5.03864461986199 -1.21778865026503 -1.72943914551455
 6  5.19357334113411 -2.13113624832483 -2.97018400060006
 6  6.22595642024202 -0.27659531243124 -1.50244680318032
 6  7.42244093809381 -0.69479526162616 -0.79198593589359
 6  8.40990355065506  0.32941857645765 -0.41090957145715
 6  9.86466955635564 -0.33201012131213  0.02994468876888
 6  9.71835935223522 -0.97783659835984  1.45893026182618
 6  10.91844417441744  0.61164601880188 -0.12243740534053
 6  12.25354062456246  0.15316662386239  0.07437574877488
 6  13.25999754235423  1.11930920562056  0.26369926832683
 6  14.70057639283928  0.52505578367837  0.38253291539154
 6  14.97524251235123 -0.13894617511751  1.64099402340234
 6  15.70301993039304  1.64068897089709  0.15090829612961
 6  17.28175765386539  0.82606783118312 -0.12061893579358
 6  18.28141768916892  1.99227641884188 -0.26146629342934
 6  19.69831203230323  1.46764525932593 -0.47139722342234
 6  19.97206700800080  0.83588901920192 -1.97284307550755
 6  20.79525669456946  2.74601601960196 -0.14924001990199
 1 -3.42416305460546  3.59382063306331  1.33238263996400
 1 -9.85403938643864  4.14513359845985 -0.10977461136114
 1 -9.84188668026803 -2.38067846714671 -1.30647347324733
 1 -2.56694921172117 -1.33651126892689  2.15446549484948
 1 -1.79612895149515  1.31496197239724  0.27766421982198
 1 -1.08031941564156  0.81216953135314  2.77089780088009
 1 -1.82157033093309  2.34070264666467  2.82978909670967
 1 -2.60650298279828  0.87739562486249  3.38344421352135
 1 -1.85474449474948 -2.45114638763876 -0.28319610641064
 1 -1.78301347034704 -0.47189866276628 -0.65238502930293
 1 -0.02800480218022 -0.10534196749675  1.22376824202420
 1  0.09284556475648 -2.13247958175818  1.22373260536054
 1 -3.79135366576658  6.02523035093509  0.24576953465347
 1 -4.98733901450145  6.56129880578058  1.23204011011101
 1 -3.83485451365136  5.39034799579958  1.84941271357136
 1 -8.67134014811481  6.10326543574357  0.19616324052405
 1 -11.92623217681768 -1.58020888838884 -0.88744317151715
 1 -13.04593080808081 -0.19814341454145 -0.94540217661766
 1 -13.32602042514251 -0.96003811921192 -3.27623474057406
 1 -12.02150911471147  0.33176059755976 -3.37923009250925
 1 -11.55023184758476 -1.81248456545655 -3.27097370477048
 1 -8.44545372867287 -4.66813336893689 -1.88746097409741
 1 -8.06287150175017 -5.77278729132913 -0.39164881678168
 1 -9.32932021202120 -4.27800976217622 -0.45869125962596
 1 -3.20315989738974 -3.58748247314731 -0.34272257905791
 1  3.07665928132813 -3.65579285308531 -0.81721743884388
 1  2.36745103390339 -2.66342225722572 -2.29803003830383
 1  3.84375170287029 -1.02355510391039 -0.00120651905190
 1  4.48411146814682 -2.13738721122112 -3.84031414641464
 1  5.95617919631963 -1.90250892629263 -3.39373059695970
 1  5.40609443684368 -2.93267588188819 -2.93282746654666
 1  6.66189661156116  0.16157149454945 -2.50783340054005
 1  5.87566267566757  0.47951349914991 -1.10195445884588
 1  7.25011619051905 -1.00906910401040  0.06279800140014
 1  7.90585598399840 -1.53226201650165 -1.40404988088809
 1  8.51228335973597  0.86185678047805 -1.15014780008001
 1  7.67795629372937  1.08050323852385  0.28649435783578
 1  10.21689413651365 -1.56130357405741 -0.56509366696670
 1  9.11973421772177 -1.87448626432643  1.61906026682668
 1  10.78848491789179 -1.09178305950595  1.70895278667867
 1  9.36924013561356 -0.25843706610661  2.11362266736674
 1  10.59055269306931  1.23670643054306 -1.12660983258326
 1  10.51493123972397  1.45923479907991  0.65622950325033
 1  12.45445298749875 -0.74873731323132  0.90174385768577
 1  12.14944709870987 -0.67437565816582 -0.66422942044204
 1  13.26426129612961  1.89680922592259 -0.98298720332033
 1  12.77017906270627  1.80176442774277  1.06499228862886
 1  14.46093751955195 -0.20152766876688 -0.35137332853285
 1  15.17332723262326  0.67777817331733  2.50089286228623
 1  14.07895516901690 -0.55504317621762  1.80673817191719
 1  16.03238027112711 -0.48710229332933  1.67701417911791
 1  15.40601173607361  2.49031902530253 -0.72298227292729
 1  15.77479151175118  2.52095163066307  1.14022234543454
 1  17.69540085518552  0.12494566516652  0.91356154285428
 1  17.35543306750675 -0.02564439523952 -1.11232260966097
 1  18.02710771787179  2.55836238403840 -1.28340132843284
 1  18.35465546164617  2.56704061096110  0.81275794629463
 1  19.99297185838584  0.65576842304230  0.53514686548655
 1  19.52460077807781  1.76567161676168 -2.52711483668367
 1  21.07998228822882  0.78779697789779 -2.07309144254425
 1  19.57745047204720 -0.18142586098610 -1.80306838153815
 1  20.46154293289329  3.33479305840584  0.77834858845885
 1  22.09448718901890  2.38578516121612 -0.27163987898790
 1  20.50012666556655  3.20735822302230 -1.19810460676068
 1 -0.83925955105511 -4.28072082148215  2.54733308130813
 1 -1.91435111611161 -5.24561183488349  3.56090672727273
 1 -1.78288230153015 -3.81079955705570  4.06215036823682
 8 -11.37316569086909  3.89286408560856 -1.23785559925993
 1 -12.81000151165117  2.43113435353535 -1.37802840784078

