%nproc=4
%Mem=4GB
# td=(NStates=1) iop(3/107=0140000000,3/108=0140000000) iop(3/107=0140000000,3/108=0140000000) CAM-B3LYP/6-31G(d,p) 

TD

0 1
12 -5.72734424102410  1.18027290159016  0.23719232443244
 6 -5.11819220642064 -2.15152361566157 -0.36478334513451
 6 -3.43217200630063  1.14661494629463  2.78145351865186
 6 -6.07276607230723  4.61862512671267  0.60841104990499
 6 -7.87195296239624  1.16938778947895 -2.37295496899690
 7 -4.53519777307731 -0.35587377917792  1.24653599239924
 6 -4.31824535203520 -1.67039074067407  0.69775212481248
 6 -3.21710483498350 -2.32769607240724  1.42200656435644
 6 -2.97305047604760 -1.44533742464246  2.74905146124612
 6 -3.66743417081708 -0.14455708340834  2.19729431463146
 6 -3.58449148854885 -1.90537397879788  3.98772147154715
 6 -1.96904209740974 -2.56317372667267  0.54905021052105
 6 -0.93758540204020 -3.37441502210221  1.34717830583058
 6  0.31790689118912 -3.81422526322632  0.62511070577058
 8  0.59090915521552 -3.31614892849285 -0.47156339053905
 8  1.02303914961496 -4.70063968126813  1.15160976827683
 7 -4.93631444774477  2.58632800970097  1.52528275997600
 6 -4.04003609340934  2.32395981768177  2.44464506780678
 6 -3.81232073577358  3.67054555675568  3.19666022222222
 6 -4.54682523522352  4.56722825112511  2.62883215451545
 6 -5.26447255145515  3.97760585578558  1.43461955425543
 6 -2.92442780588059  3.71397877367737  4.33521771117112
 6 -4.69196572717272  5.95139255975598  3.03007251205121
 8 -4.02085213321332  6.54627251525153  3.95851975187519
 7 -6.78599239913991  2.73632352815282 -0.77814947124712
 6 -6.79517223202320  4.04190380758076 -0.46968865756576
 6 -7.86201138753875  4.64466119091909 -1.27264137363736
 6 -8.31082053535353  3.63030996089609 -2.07318626302630
 6 -7.70200909140914  2.41965797459746 -1.74699064556456
 6 -8.09956294719472  6.00421033043304 -1.31077058585859
 6 -9.36791115441544  3.87944834303430 -3.18253288608861
 6 -8.70792224592459  4.27594574077408 -4.53256966096610
 7 -6.32058047704770 -0.15217023472347 -1.12303739573957
 6 -7.27091662126213 -0.01988805740574 -2.11204541524152
 6 -7.49462696989699 -1.32553425702570 -2.77570009260926
 6 -6.68851840064006 -2.15584515631563 -2.13367953365337
 6 -6.01396981238124 -1.37703126822682 -1.10849698009801
 6 -8.50875633343334 -1.71249137513751 -3.88913580978098
 6 -6.25357902500250 -3.57179276317632 -1.94950850595060
 8 -6.57141153665366 -4.56946464486449 -2.61781804690469
 6 -5.11247981008101 -3.57833588618862 -0.84110643044304
 6 -5.32531000840084 -4.59410485158516  0.25664933673367
 8 -5.76923269486949 -4.44979398749875  1.38648501190119
 8 -5.08039773797380 -5.82801399779978 -0.38454159875988
 6 -5.45054261846185 -6.95290714401440  0.46634846464646
 6  2.34568554175418 -5.18480960116012  0.61107506190619
 6  3.47919245424542 -4.22709287018702  1.03455135493549
 6  4.10521991219122 -3.37350022012201  0.22399603460346
 6  3.68346268516852 -3.10239518081808 -1.18387789228923
 6  5.19045547134713 -2.40828587618762  0.81004480328033
 6  6.52111698299830 -2.66994992019202  0.03347481488149
 6  7.69499482308231 -1.83228258375838  0.44773046354635
 6  9.10289111041104 -2.03667850145015 -0.10709849234924
 6  9.62950933263326 -3.45053569396940  0.04312085438544
 6  9.95528610771077 -0.91438167556756  0.40506302180218
 6  11.35894319671967 -0.74702430933093 -0.36537530373037
 6  12.26905459405940  0.28006263376338  0.27719456705671
 6  13.64729718551855  0.29498436833683 -0.47738250145014
 6  14.54753305230523 -0.82865226782678 -0.30586473737374
 6  14.26975291489149  1.74961113271327 -0.16578583338334
 6  15.40589477987799  2.12131015921592 -1.00802579757976
 6  15.97472005640564  3.58654340714071 -0.58614922812281
 6  17.12499774887489  3.97911575317532 -1.45824976017602
 6  16.94122671237124  4.11957684938494 -2.96629885408541
 6  17.69202860896089  5.39271453675368 -0.88913837273727
 1 -2.70661638443844  1.13878815421542  3.65708617701770
 1 -6.26860483928393  5.71257663806381  0.79640863256326
 1 -8.64486489368937  1.21801210411041 -3.27669314811481
 1 -3.47851891669167 -3.48832414781478  1.86156421722172
 1 -1.85052217611761 -1.09117677927793  2.69387066316632
 1 -3.24040381948195 -2.99916307750775  4.32309585358536
 1 -3.29956074877488 -1.18422832723272  4.87934996479648
 1 -4.77516002770277 -1.88044712561256  3.99637358785879
 1 -2.03978929262926 -3.07304682198220 -0.24164478827883
 1 -1.56926475887589 -1.56871598789879  0.24016213781378
 1 -0.82096753025303 -2.82466376197620  2.37480169886989
 1 -1.42992771437144 -4.35800293149315  1.57888968696870
 1 -1.83149326312631  3.32212173657366  4.27038294799480
 1 -2.86087707780778  4.80590779677968  4.73057931563156
 1 -3.31679467446745  3.16258725622562  5.28796380238024
 1 -5.35655871977198  6.53248744314432  2.54963028442844
 1 -9.86580571407141  2.94485514261426 -3.29695294699470
 1 -10.04910570847085  4.68641248534854 -2.68227851855185
 1 -9.09122892269227  4.21107952195220 -5.47907310961096
 1 -8.20754026342634  5.29812955835584 -4.60259021402140
 1 -7.93637348634863  3.42631198999900 -5.02772269706971
 1 -8.23029061866187 -1.47423796669667 -4.91029202750275
 1 -8.87234821782178 -2.77565097019702 -3.90277291429143
 1 -9.47668774827483 -1.15505232863286 -3.44491139783978
 1 -4.17729508690869 -3.98512333893389 -1.38787207410741
 1  2.54364549754976 -6.24413235623562  1.22122807970797
 1  2.31646238963896 -5.31366834293429 -0.44175762536254
 1  3.66203832613261 -4.21912119391939  2.07611261886189
 1  2.65609059575958 -3.61444706580658 -1.40268280928093
 1  3.92989760306031 -2.03473703300330 -1.59101157165717
 1  4.33173534753475 -3.85707943714371 -1.66599552545255
 1  4.77393743464346 -1.45457188118812  0.58536041954195
 1  5.18984751205121 -2.74533616601660  1.73226810711071
 1  6.82725025172517 -3.83944713681368  0.16642452645265
 1  6.20849100950095 -2.56587419641964 -1.13523411891189
 1  7.45940487178718 -0.75866919201920  0.56587383288329
 1  7.81850395329533 -2.02065864896490  1.54003838913891
 1  8.92691680098010 -1.87480575577558 -1.21963530163016
 1  8.87447196589659 -3.97323609500950 -0.57382117451745
 1  10.65228456925693 -3.45177938003800 -0.46029614311431
 1  9.68882794419442 -3.65281637313731  1.13458390109011
 1  9.57010616121612  0.02104783098310  0.18460382418242
 1  10.12713281078108 -1.07448398229823  1.46108564856486
 1  11.92616775807581 -1.63153318521852 -0.31397577077708
 1  11.10747683438344 -0.67941084598460 -1.40769210281028
 1  12.01340237373737  1.31943637283728  0.17918836363636
 1  12.43058788208821  0.14993618501850  1.30722900310031
 1  13.23221002170217  0.46690112241224 -1.53134537323732
 1  14.99383872217222 -0.91234944764476  0.89058473847385
 1  13.96632220322032 -1.72610162646265 -0.47555387688769
 1  15.51610259865987 -1.04911811001100 -0.87688458095810
 1  13.58555674987499  2.53357797689769 -0.16280806850685
 1  14.57537423772377  1.53084337353735  1.01426864076408
 1  16.27811946774678  1.54933354605461 -1.06291278197820
 1  15.08845442884289  2.01522543534353 -2.11390276997700
 1  15.27590899549955  4.39388476647665 -0.94698669676968
 1  16.18294106420642  3.48090473187319  0.56081598199820
 1  17.86019970137014  3.26889838103810 -1.36689576917692
 1  16.24310503090309  4.83569009790979 -3.17369972977298
 1  17.96358228172818  4.31956146944694 -3.37480208530853
 1  16.66273647384739  2.97007807780778 -3.15552358695870
 1  18.01639768696869  5.30289150665067  0.12169383358336
 1  18.53982150445044  5.94025817801780 -1.32252916731673
 1  16.74021557245725  6.15327483058306 -0.96025008630863
 1 -5.18888418981898 -7.83724315741574 -0.10423396109611
 1 -6.48731316161616 -6.95317240384038  0.72705621312131
 1 -5.13993216181618 -6.68158973457346  1.51438589518952
 8 -7.64558214981498  6.89428592939294 -0.59351713571357
 1 -9.15295359245925  6.34763040794079 -1.83297898069807

