%nproc=4
%Mem=4GB
# td=(NStates=1) iop(3/107=0140000000,3/108=0140000000) iop(3/107=0140000000,3/108=0140000000) CAM-B3LYP/6-31G(d,p) 

TD

0 1
12 -5.54711621822182  1.25796067036704  0.18143674887489
 6 -5.05177556475648 -2.17338580188019 -0.40877774457446
 6 -3.32614140324032  1.14444472927293  2.67789316261626
 6 -6.18544734043404  4.58197146134613  0.67192740154015
 6 -7.97046281338134  1.15292614331433 -2.24216188968897
 7 -4.34940919421942 -0.30283847564756  0.95709704850485
 6 -4.32970649814982 -1.67690139173917  0.58381073067307
 6 -3.31156428092809 -2.37474077687769  1.55848021172117
 6 -2.90426359735974 -1.40359325022502  2.68750530663066
 6 -3.58164559195920 -0.14684731243124  2.07684226942694
 6 -3.45497853725373 -1.67955139653965  4.04086678607861
 6 -2.10045523872387 -2.80719812911291  0.73920922642264
 6 -0.96628827232723 -3.50204778537854  1.53812740074007
 6  0.20847594809481 -3.92826666736674  0.69474766946695
 8  0.46669673397340 -3.42338965256526 -0.40444667886789
 8  1.08406525222522 -4.67962758005801  1.35059966726673
 7 -4.88984980128013  2.56671604850485  1.43763399509951
 6 -3.96558864866487  2.37831525322532  2.38588919221922
 6 -3.73862336603660  3.61841034323432  3.10517107330733
 6 -4.50381093379338  4.58260978927893  2.48345761706171
 6 -5.27440354455446  3.99402749794979  1.51002709500950
 6 -2.83051841494149  3.81762913871387  4.34604879427943
 6 -4.64215074567457  6.00650807130713  2.91837134193419
 8 -4.22245229322932  6.62930081808181  4.00817471737174
 7 -6.86409020892089  2.73506340214021 -0.63611526782678
 6 -6.87874058885889  4.03517313451345 -0.36857854655466
 6 -7.90500568696870  4.59138586338634 -1.19490359985999
 6 -8.41072052535253  3.63934086398640 -2.04027297169717
 6 -7.73654254475448  2.40927693649365 -1.69387533403340
 6 -8.26849984088409  6.05195510491049 -1.25159466826683
 6 -9.44381874517452  3.79690008820882 -3.13275790859086
 6 -8.86758821252125  4.23932207840784 -4.50328673267327
 7 -6.36445486448645 -0.23285830353035 -1.07659275127513
 6 -7.34499402900290  0.01765569696970 -2.04281849254926
 6 -7.54203171037104 -1.27487919151915 -2.67694021662166
 6 -6.72066161496150 -2.21670124192419 -2.01922808850885
 6 -5.90823923932393 -1.42175574067407 -1.12453858425843
 6 -8.45580103790379 -1.58607873387339 -3.81150804700470
 6 -6.23819748684869 -3.59016460036004 -2.12330588568857
 8 -6.55764015951595 -4.59611731013101 -2.82026829192919
 6 -4.97197575967597 -3.57056510911091 -0.98634095389539
 6 -5.11590906830683 -4.66673211431143  0.05652932473247
 8 -5.62889866146615 -4.43275228332833  1.21582794619462
 8 -4.85159485768577 -5.88652984938494 -0.45361850645065
 6 -5.31902946714672 -7.02884473777378  0.35548737853785
 6  2.33547452065207 -5.13764488468847  0.68137209160916
 6  3.50709524452445 -4.30041020192019  1.13857175697570
 6  4.04842423262326 -3.28309117921792  0.30950458545855
 6  3.60167450635063 -3.20211515281528 -1.08146765126513
 6  5.18165459125913 -2.42977802540254  0.80565436423642
 6  6.43117798909891 -2.67982090729073  0.05807727512751
 6  7.52963828742874 -1.84233358885889  0.62410810131013
 6  8.99008983028303 -1.91834666826683 -0.06902468496850
 6  9.62496887858786 -3.28790943134313  0.16720326262626
 6  9.88631921102110 -0.79615985338534  0.42296481198120
 6  11.25580288268827 -0.80337994489449 -0.34328309450945
 6  12.16635432403240  0.35238986648665  0.07758460606061
 6  13.40712316811681  0.52527739763976 -0.71152591579158
 6  14.30419871887189 -0.76636603920392 -0.56924107500750
 6  14.26310224982498  1.72937910951095 -0.16396565136514
 6  15.50561475187519  2.16942497069707 -1.11149614461446
 6  16.05934851925192  3.52587734053405 -0.61183179637964
 6  17.38846409550955  3.81739958155816 -1.34455839103910
 6  17.13985657535753  3.91019591129113 -2.82085430963096
 6  17.99798920502050  5.20934619991999 -0.80165962486249
 1 -2.54322004480448  1.17328160356036  3.48792926132613
 1 -6.31824980378038  5.56749212961296  0.90074906660666
 1 -8.69225963316332  1.33335363826383 -3.05953143194319
 1 -3.74678574337434 -3.56159147454745  1.86608466926693
 1 -1.79801692559256 -1.25730339193919  2.80687196329633
 1 -3.09332911201120 -2.60692385358536  4.56333987798780
 1 -3.61936272897290 -0.77688759315932  4.48844087388739
 1 -4.54577708940894 -2.15089417031703  4.24455840634063
 1 -2.48502381608161 -3.50809032633263 -0.26581720552055
 1 -1.73776160856086 -1.84756387268727  0.26842496409641
 1 -0.77518295179518 -2.71439273487349  2.35935015371537
 1 -1.46618133973397 -4.21967909910991  2.09509130713071
 1 -1.82776289008901  3.54980450485049  4.09422533223322
 1 -2.74490548064806  5.02942014801480  4.48607486518652
 1 -3.02458545354535  3.20628162566257  5.23109811581158
 1 -5.44152721662166  6.57407160156016  2.34633995539554
 1 -10.09257839133913  2.93536419351935 -3.27515076677668
 1 -10.00734153205321  4.62711655575558 -2.83201349204920
 1 -9.78810861066107  4.28269668366837 -5.21598680098010
 1 -8.34661417081708  5.22903264866487 -4.71710166516652
 1 -8.09070891989199  3.52313167196720 -4.89084900970097
 1 -8.56075366496650 -0.95174571747175 -4.83637463576358
 1 -8.18221920492049 -2.61580498559856 -4.01066370337034
 1 -9.45687576707671 -1.57033385678568 -3.33081998869887
 1 -4.20719807720772 -3.71265609220922 -1.60528381528153
 1  2.44326545954596 -6.18179612261226  1.00809676657666
 1  2.23242398579858 -4.96042301840184 -0.33994744434444
 1  3.77796991929193 -4.45938522032203  2.30178518611861
 1  2.48922390909091 -3.11253687478748 -1.08804134513451
 1  4.21925653895390 -2.26801036033603 -1.83055552605261
 1  3.89047122112211 -4.08938266746675 -1.57261618751875
 1  5.00559059996000 -1.36502292629263  0.74211609510951
 1  5.49943847114711 -2.54319595199520  1.95538041834183
 1  6.80930845754575 -3.76157935003500  0.10750863486349
 1  6.53041320172017 -2.76132374137414 -1.03986458195820
 1  7.32297122842284 -0.59780310541054  0.66968421392139
 1  7.61035313821382 -2.01529811291129  1.64658904420442
 1  8.77947205650565 -1.64998327352735 -1.21608494659466
 1  8.86762128082808 -4.05042381378138 -0.38467225962596
 1  10.58738807960796 -3.73300750285029 -0.14329444294429
 1  9.58396745814581 -3.55504659615962  1.25238568126813
 1  9.29477862846285  0.27121284748475  0.37033239703970
 1  10.11024112161216 -0.87361389528953  1.49306884688469
 1  11.72777791909191 -1.80818084998500 -0.27159153235324
 1  10.99463555025503 -0.65817872277228 -1.62993432703270
 1  11.61577261076108  1.30724515371537 -0.02567212241224
 1  12.43648847214721  0.04149534093409  1.15064334453445
 1  13.19126592729273  0.71303573587359 -1.74441668036804
 1  14.35198453675367 -1.08422663536354  0.51213689368937
 1  13.97996356735674 -1.55294431073107 -0.99985630713071
 1  15.18775976437644 -0.66222942114211 -1.08961585408541
 1  13.60692888708871  2.57294191329133 -0.09142092979298
 1  14.65347204750475  1.58418870807081  0.82663987788779
 1  16.30248190399040  1.40887950065006 -1.02425891659166
 1  15.25677126052605  2.38533244604460 -2.04407578727873
 1  15.27998940354036  4.34858023602360 -0.72215421352135
 1  16.26026879697970  3.49264590599060  0.37134703510351
 1  18.06472015341534  2.95031652285228 -0.84275335493549
 1  16.20765148554855  4.71952848174818 -2.96388874867487
 1  18.07450337383738  4.16358587188719 -3.47832243734373
 1  16.67614781498150  3.04067513751375 -3.30656869146915
 1  18.36219226642664  4.89336055355536  0.34270593479348
 1  18.81495901820182  5.93231738393839 -1.47952486688669
 1  17.06623817471747  5.99317882098210 -0.50554461576158
 1 -5.17869317071707 -7.97832726582658 -0.15325886358636
 1 -6.42258668896890 -7.12820990759076  0.78338184568457
 1 -4.77474564316432 -6.83155473107311  1.23274773137314
 8 -7.83363095469547  6.96306280708071 -0.51919970397040
 1 -8.97050534763476  6.36659230413041 -2.12427811061106

