%nproc=4
%Mem=2GB
# td=(NStates=1) iop(3/107=0140000000,3/108=0140000000) iop(3/107=0140000000,3/108=0140000000) CAM-B3LYP/6-31G(d,p) 

TD

0 1
12 -6.64602717481748  0.62786193029303  0.11638925842584
 6 -4.44537164366437 -1.97133555535554  0.60697097409741
 6 -4.14919673507351  2.83976560966097  0.96683956555656
 6 -9.02967567226723  3.18046207030703 -0.32695219691969
 6 -9.20925902350235 -1.66365939553955 -0.69467952665267
 7 -4.61945701760176  0.45829522722272  0.55759479157916
 6 -3.82089935553555 -0.77569727652765  0.64247480288029
 6 -2.47550096869687 -0.57298905810581  0.92843490579058
 6 -2.37038700450045  0.95686583538354  1.17070923342334
 6 -3.76873313621362  1.42489257445745  0.79909468416842
 6 -1.96043232893289  1.31070286618662  2.69288385118512
 6 -1.61837058545855 -1.02107467086709 -0.21798047174717
 6 -0.20112823112311 -1.56625833243324  0.27670674417442
 6  0.73715479467947 -1.34209144604460 -0.99527770157016
 8  0.77883795189519 -0.84088670117012 -2.02778376857686
 8  1.82998328492849 -2.08660895949595 -0.52460738323832
 7 -6.52078382058206  2.71204157415742  0.44915866376638
 6 -5.32503306420642  3.40263890709071  0.59956625282528
 6 -5.73158737393739  4.95752543734373  0.71742661126113
 6 -7.06090680408041  4.96259234973497  0.29587617091709
 6 -7.61221292519252  3.58873768216822  0.14975980738074
 6 -4.67270219051905  5.85906333683368  0.97195486348635
 6 -7.97267882918292  6.12122904300430  0.23995351905191
 8 -7.43866778297830  7.28839045564556  0.12933078987899
 7 -8.78762231573157  0.72004286348635 -0.18940158925893
 6 -9.59637330973097  1.82077681298130 -0.38964001630163
 6 -10.87560419071907  1.49509938103810 -0.70511629282928
 6 -10.98332268976898  0.09970087448745 -0.89472032753275
 6 -9.65115677897790 -0.39773793699370 -0.54165624232423
 6 -11.87055383068307  2.52606879998000 -0.98903355415542
 6 -12.20104322482248 -0.68356191849185 -1.18201633533353
 6 -12.47713457555756 -0.96540870607061 -2.58288108280828
 7 -6.81452793569357 -1.28807136843684  0.04654200970097
 6 -8.08232089368937 -2.21652164886489 -0.39526272427243
 6 -7.43725131023102 -3.71081840424042 -0.59353036313631
 6 -6.18566418761876 -3.60323948484848 -0.09044730533053
 6 -5.75442173087309 -2.16875569006901 -0.00714453015302
 6 -8.28738726222622 -4.74554193199320 -0.78987180308031
 6 -4.94983118761876 -4.26425222332233  0.02825085078508
 8 -4.67131888058806 -5.56037657595760 -0.07814730813081
 6 -3.93318704410441 -3.39511007020702  0.48434308150815
 6 -3.47537104800480 -3.60340651615161  1.98494820782078
 8 -3.94843008310831 -3.97505424022402  2.91353002280228
 8 -2.31617329222922 -3.56766307160716  1.79069900910091
 6 -1.54564308640864 -3.95065015511551  2.97172159735974
 6  2.92137403020302 -2.25965114201420 -1.57776902100210
 6  3.92517628502850 -1.31639864096410 -1.05498103040304
 6  4.98432918831883 -1.01111798319832 -1.80055625722572
 6  5.07454143794379 -1.40848398309831 -3.22494947714771
 6  6.21873569816982 -0.17149480238024 -1.48029458795880
 6  7.47246594059406 -1.04790057215722 -0.71988872617262
 6  8.59042160246025 -0.05993035843584 -0.06156463696370
 6  9.83266635603560 -0.66037295759576  0.11489318361836
 6  9.65822333863386 -1.60913972867287  1.35946031483148
 6  10.88509083908391  0.48255310951095  0.40021485988599
 6  12.32783805430543 -0.15202389518952  0.73855216641664
 6  13.41749329192919  0.77972524722472  0.69432233063306
 6  14.80127646284629  0.34569784788479  0.67466212831283
 6  15.20930591869187 -0.12162444294429  2.03186311031103
 6  15.75385501390139  1.45261016301630  0.15931913721372
 6  17.08095757385739  0.87190241464146  0.20779390549055
 6  18.10177972537254  1.89668685988599 -0.43137328412841
 6  19.37594979607961  1.46248474327433 -0.66211629532953
 6  19.65184498579858  0.49489491979198 -2.11048683988399
 6  20.41572874177418  2.55892731073107 -0.49923501940194
 1 -3.24956559485949  3.31957320832083  1.27269667136714
 1 -9.65985996849685  4.35887497259726 -0.68840247414742
 1 -9.98059055065507 -2.14930532983298 -0.86245907180718
 1 -2.16228874567457 -1.21935955375537  2.08204825312531
 1 -1.82889222782278  1.46016649284928  0.52982943634363
 1 -0.97131851555156  1.01398971337134  2.61311202230223
 1 -2.01175934983498  2.35061363776378  2.90643676147615
 1 -2.57407974047405  0.86063394869487  3.56643251235124
 1 -1.96835585588559 -1.86244751775178 -0.78420620742074
 1 -1.37461263026303 -0.23666513941394 -0.92203199399940
 1  0.31674967326733 -0.87181861516152  1.25832169736974
 1 -0.21461518131813 -2.51267760156016  0.67583781588159
 1 -4.07241177157716  5.95455328322832 -0.02348739103911
 1 -4.84481476207621  6.88062073797380  1.15485239133913
 1 -4.42704373257326  6.02433139413941  1.99626739903990
 1 -8.89105211931193  5.88795390459046  0.28243186738674
 1 -11.95899545314531 -1.50950181768177 -0.85304973217322
 1 -12.82720893589359 -0.08531213141314 -0.77006464286429
 1 -13.28844666776678 -1.51231334673467 -2.89019613671367
 1 -12.00839780358036 -0.30364294279428 -3.34614678417842
 1 -11.89018584298430 -1.65637895489549 -3.07645425282528
 1 -8.87091627492749 -4.97946450205020 -1.67236946494649
 1 -7.44151936653665 -5.62932294489449 -0.61216086798680
 1 -9.08033531353135 -4.86474843604360 -0.12363775427543
 1 -3.10077965936594 -3.55746947184718 -0.41323963076308
 1  3.05933754915491 -3.35431270507051 -1.42083780088009
 1  2.73677796659666 -2.03517943294329 -2.63835407070707
 1  4.20487781548155 -0.63247599599960 -0.12729912831283
 1  4.24848790579058 -1.33808728122812 -4.00037015201520
 1  6.52854643304330 -1.17113578897890 -3.76132735663566
 1  5.15313914131413 -2.57404001830183 -3.51280546434643
 1  6.70206062796280  0.69087442484248 -2.55473809100910
 1  5.89880498989899  0.47457300510051 -0.69197346074608
 1  7.03228440734073 -1.83437163426343 -0.15581385978598
 1  7.97676307470747 -1.71607039733973 -1.34035351125112
 1  8.81235336673667  0.55754634943494 -0.81657444274427
 1  7.90354885298530  0.58110329852985  0.65247095549555
 1  10.04289673677368 -1.17296474017402 -0.56502365996600
 1  9.01369361366137 -2.41774058975897  1.47623598439844
 1  10.63200927032703 -2.19659354055405  1.61117300870087
 1  9.30240345194519 -1.12370359275928  2.30524182928293
 1  10.85736937473747  0.98598135803580 -0.73754092569257
 1  10.77334708130813  0.84028290389039  1.19051293159316
 1  12.54408195039504 -0.82689512901290  1.77620130343034
 1  12.98033018701870 -1.21916013661366 -0.01739473697370
 1  13.21734660466047  1.31797134213421 -0.16109501410141
 1  13.30294233903390  1.82249650095009  1.52139792919292
 1  14.69044046984699 -0.57243475947595  0.09269107790779
 1  15.08949884978498  0.56297669316932  2.75651842484248
 1  14.40343761726173 -0.98375604750475  2.30397789588959
 1  16.13901093419342 -0.97112069516952  2.08786526422642
 1  15.32511364626463  1.96098609200920 -0.66319629432943
 1  15.63870790339034  2.51695123062306  0.62346066926693
 1  17.68400971607161  0.62568573917392  1.03486367306731
 1  17.22118964316432  0.27154532373237 -0.45768714611461
 1  18.01671667876788  2.57116366416642 -1.14896788508851
 1  18.25818581468147  2.65284919181918  0.12168883938394
 1  19.69068162936294  0.76411925812581  0.22682603340334
 1  19.55084340234023  1.22457750735074 -3.07232935813581
 1  20.73914820482048  0.15019321752175 -1.89903403680368
 1  18.87196992399240 -0.11220893929393 -2.06912498719872
 1  20.59149592819282  3.13529310841084  0.38937969156916
 1  21.20518825912592  1.95067164986499 -0.66889960496050
 1  19.95947260016002  3.42300978817882 -1.28229302560256
 1 -0.38303392849285 -4.59477222662266  2.60327867586759
 1 -2.45856553755376 -4.65154242794279  3.46100673727373
 1 -1.30981499479948 -2.72484096119612  3.25541969516952
 8 -11.82420079437944  3.72847764696470 -0.94866668036804
 1 -12.83074358585859  1.73328456855686 -1.26740734573457

