%nproc=4
%Mem=4GB
# td=(NStates=1) iop(3/107=0140000000,3/108=0140000000) iop(3/107=0140000000,3/108=0140000000) CAM-B3LYP/6-31G(d,p) 

TD

0 1
12 -5.63737524412441  1.15365023932393  0.24211281648165
 6 -5.02315270247025 -2.06216467976798 -0.27984485128513
 6 -3.30931972107211  1.27109739453945  2.75704107740774
 6 -6.34187298299830  4.47060032423242  0.69555976477648
 6 -7.95605137223722  1.23194404510451 -2.39504717821782
 7 -4.35880013331333 -0.23579177097710  1.09409074787479
 6 -4.21653518101810 -1.54490819241924  0.66854920452045
 6 -3.17906103060306 -2.33978728152815  1.38643300700070
 6 -2.86934010501050 -1.28180107100710  2.53579013511351
 6 -3.48502592999300  0.00836820912091  2.13616820202020
 6 -3.46750979037904 -1.59018245964596  3.97340003940394
 6 -1.88335352855286 -2.60923833313331  0.66805211071107
 6 -0.94874651815181 -3.52480006060606  1.51310489848985
 6  0.25273037353735 -3.93802764346435  0.65046324102410
 8  0.52354241854185 -3.54881219481948 -0.43929016321632
 8  1.04483132883288 -4.77822744004400  1.28892349964997
 7 -4.92611342764276  2.62119149604960  1.50959119081908
 6 -3.96839892969297  2.42650007170717  2.43645424872487
 6 -3.77671717541754  3.65554405660566  3.18395895209521
 6 -4.62325287798780  4.57419894819482  2.64487375867587
 6 -5.29848595279528  3.92617071227123  1.53277937023702
 6 -2.77669303240324  3.68045542134213  4.32873706310631
 6 -4.55909243984398  5.99072649314931  2.91006051085109
 8 -3.98760880888089  6.53235112311231  3.81419531943194
 7 -6.83096689658966  2.63733362916292 -0.64609626592659
 6 -7.09393210801080  3.98302791999200 -0.34225591429143
 6 -7.94794998139814  4.60870759555956 -1.18820292979298
 6 -8.32577203050305  3.60811774167417 -2.09988893329333
 6 -7.77293618411841  2.36276228502850 -1.68898484498450
 6 -8.39373236413641  5.93947385678568 -1.12651216001600
 6 -9.32809717301730  3.80953135133513 -3.16834146694669
 6 -8.64039549324933  4.05027317351735 -4.61437784178418
 7 -6.29674809380938 -0.20071508920892 -0.97906299829983
 6 -7.29941947154715  0.01086501790179 -2.12359657035704
 6 -7.42530003720372 -1.27914961856186 -2.78609113171317
 6 -6.60831037983798 -2.23293286508651 -2.03916008170817
 6 -6.02245066046605 -1.40832439753975 -1.04852098249825
 6 -8.38903436123612 -1.49588971497150 -3.92264916111611
 6 -6.10326399349935 -3.51769735363536 -2.12056561166117
 8 -6.49425382088209 -4.55105280368037 -2.68914517961796
 6 -5.11295985808581 -3.50253830643064 -0.92727504730473
 6 -5.34810228762876 -4.57939338043804  0.11658533033303
 8 -5.68718449004901 -4.41797080518052  1.28128449184918
 8 -5.17331702990299 -5.81392258865887 -0.45191833643364
 6 -5.43197076127613 -6.99145099839984  0.29049087888789
 6  2.33657463066307 -5.14383550375037  0.64898885328533
 6  3.43807834283428 -4.29145930683068  1.00270817061706
 6  4.03682307250725 -3.27868073817382  0.25956959195920
 6  3.64899923882388 -3.11358629992999 -1.18681818631863
 6  5.13614003980398 -2.42595764336434  0.72938673747375
 6  6.57681255255526 -2.74163708890889  0.15722719011901
 6  7.67995331893189 -1.80534989048905  0.58973466396640
 6  8.97367818911891 -1.99084391799180  0.04131634913491
 6  9.54722110381038 -3.34632527292729  0.23548009030903
 6  9.98050862996300 -0.97062730013001  0.45296781228123
 6  11.22664996739674 -0.88160776767677 -0.22491125732573
 6  12.10862855145514  0.34845947344734  0.14344119171917
 6  13.51099355515552  0.44573944384438 -0.67044180738074
 6  14.43579187818782 -0.72278168076808 -0.37265141604160
 6  14.16382232183218  1.80047621922192 -0.30095935073507
 6  15.47576176657666  2.07164519271927 -1.08400339533953
 6  15.88540112451245  3.53632838563856 -0.67613822702270
 6  17.25288053715371  3.94526236783678 -1.36450038523852
 6  17.23868645834584  3.95304019571957 -2.88265048924892
 6  17.81113051915191  5.28670393569357 -0.83981344024402
 1 -2.61543726652665  1.25523979937994  3.60927139553955
 1 -6.72536051485149  5.59017439783978  0.81972096379638
 1 -8.57143755095509  1.02801310421042 -3.30330580938094
 1 -3.51726279107911 -3.21628694409441  1.71737979877988
 1 -1.78386551045105 -1.02335999759976  2.63477475357536
 1 -3.16539631873187 -2.39954311551155  4.05368891289129
 1 -3.20479127182718 -0.73978388278828  4.76794882468247
 1 -4.43733624532453 -1.72930201110111  3.63691764226423
 1 -2.33774908860886 -3.15449496679668 -0.06220684448445
 1 -1.28897673007301 -1.82328144444444  0.28902702430243
 1 -0.54134956845685 -3.00659195479548  2.38004222292229
 1 -1.51847656925693 -4.46043317451745  1.91545334333433
 1 -1.83041315511551  3.43023254765477  3.98479438913891
 1 -2.84402539263926  4.81531873787379  4.65733199089909
 1 -2.94170716571657  2.96716771427143  5.09687469346935
 1 -5.13751681558156  6.89393358775878  2.20722604400440
 1 -10.06771590509051  3.00842149924992 -3.35078833053305
 1 -10.22250304820482  4.50086393049305 -3.13814410511051
 1 -9.51276107590759  3.97230564456446 -5.27496269856986
 1 -8.16216572597260  5.02238198359836 -4.81844179917992
 1 -7.96190603960396  3.31698105690569 -4.90577050185018
 1 -8.67711530113011 -0.54577512041204 -4.85283628192819
 1 -8.26836781978198 -2.47430083518352 -4.57144978197820
 1 -9.27163724322432 -1.49929675307531 -3.36677358405841
 1 -4.10195755315532 -3.61613644024402 -1.48537182408241
 1  2.45120625362536 -6.12761070407041  1.22216817371737
 1  2.05613635703570 -5.20434741084108 -0.51686513611361
 1  3.73292541484148 -4.24283356515652  2.11010601820182
 1  2.47167215391539 -3.09096471757176 -1.36218875987599
 1  3.87629224252425 -2.03588714801480 -1.49050152065207
 1  4.18756093009301 -3.98078180738074 -1.79605853175318
 1  5.07486752765276 -1.35526195019502  0.53926581008101
 1  5.37533606090609 -2.63638527092709  1.75567044734473
 1  6.81062858955896 -3.80200339243924  0.17650553455346
 1  6.17124728512851 -2.41289889888989 -0.98857945344534
 1  7.43267219851985 -0.64377770287029  0.44131137663766
 1  7.48078018091809 -1.94320090319032  1.71841622692269
 1  8.82825693499350 -1.95210348554855 -1.09315265336534
 1  8.92066658535854 -4.18069684108411 -0.34472826522652
 1  10.47531687248725 -3.42943714581458 -0.18386850035004
 1  9.48601766316632 -3.58263935543554  1.23294373707371
 1  9.26592574317432  0.04570029622962  0.45551091489149
 1  10.10114021152115 -1.34371090499050  1.70219975997600
 1  11.77252239353935 -1.91029106100610 -0.40264463766377
 1  10.97882396909691 -1.06840974587459 -1.35464679827983
 1  11.69775080858086  1.22350677987799  0.03073351815181
 1  12.39814463776378  0.08622981438144  1.04900318051805
 1  13.35934273497350  0.23091752405240 -1.86272851155116
 1  14.71958129642964 -0.63121133383338  0.55999167916792
 1  13.88555412641264 -1.62566158245825 -0.77262358385839
 1  15.45527651605161 -0.68154135233523 -0.87250414291429
 1  13.41187938213821  2.60131475057506 -0.43224501220122
 1  14.53059976027603  1.61857214641464  0.88664587848785
 1  16.29283093889389  1.59663827652765 -0.66353284398440
 1  15.50803638703870  2.05112902570257 -2.10736211591159
 1  15.07905931053105  4.33626900490049 -1.00590258835884
 1  16.09298206830683  3.62525916731673  0.41486138653865
 1  18.08822250365036  3.24997648884888 -1.06035511511151
 1  16.40398111851185  4.68230475937594 -3.12760512031203
 1  18.15049097259726  4.15571508480848 -3.50418502360236
 1  16.79678987918792  3.10749181918192 -3.25914394899490
 1  18.07563361056106  5.28442966046605  0.33411507570757
 1  18.75241276357636  5.63439759195920 -1.38640555495550
 1  17.09431098199820  6.22481198429843 -1.03997805910591
 1 -5.11603690509051 -8.06927636073607 -0.26892042974297
 1 -6.37898232853285 -6.94200128672867  0.71986549404941
 1 -4.90474864346435 -6.88621019661966  1.30368482508251
 8 -7.93416100770077  6.83651015181518 -0.36802458645865
 1 -9.11804010111011  6.26026167106711 -1.96531221402140

