%nproc=4
%Mem=4GB
# td=(NStates=1) iop(3/107=0140000000,3/108=0140000000) iop(3/107=0140000000,3/108=0140000000) CAM-B3LYP/6-31G(d,p) 

TD

0 1
12 -5.60400190679068  1.24925980028003  0.21333993919392
 6 -4.96200658785879 -2.09418788208821 -0.43298016481648
 6 -3.43829261836184  1.11202148694869  2.68871424472447
 6 -6.22949174487449  4.55273853805381  0.69280948974898
 6 -7.93819958705871  1.21893274397440 -2.42292996649665
 7 -4.43815806910691 -0.27833602540254  0.99701103990399
 6 -4.24167769526953 -1.61871557315732  0.60234258385839
 6 -3.10036316081608 -2.33673697649765  1.47360172387239
 6 -2.83085625662566 -1.38123101400140  2.53263982008201
 6 -3.57133456085609 -0.09366199389939  2.04974956015602
 6 -3.58936197559756 -1.71607504890489  3.83213591299130
 6 -1.98926411961196 -2.69836724602460  0.57668297379738
 6 -0.94673631713171 -3.55534311491149  1.37286087408741
 6  0.36914201470147 -3.92665650635064  0.60250844554455
 8  0.53371343564356 -3.64441175477548 -0.52303853805381
 8  1.16089293499350 -4.68842846014601  1.30005461276128
 7 -4.96843766006601  2.58620799769977  1.55972620432043
 6 -3.98673076287629  2.37686510821082  2.51095169846985
 6 -3.78854835853585  3.61239974217422  3.11825238143814
 6 -4.54351490419042  4.65344687298730  2.56766603790379
 6 -5.23991009520952  3.87976607180718  1.51094718701870
 6 -2.76933229632963  3.79086646244624  4.31847603700370
 6 -4.58797532813281  6.03733115361536  2.94562406720672
 8 -3.94701474947495  6.46786467446745  3.92536643654365
 7 -6.89972377227723  2.60031992779278 -0.65199685598560
 6 -6.99339205400540  3.96203582078208 -0.24218590729073
 6 -7.96088127452745  4.61659838463846 -1.20479458895890
 6 -8.43153260656065  3.65824275417542 -2.02760170457046
 6 -7.79472836333633  2.41516752555256 -1.69605555205521
 6 -8.22365535643564  6.04427433683368 -1.17852736153615
 6 -9.46811117441744  3.85107550575058 -3.18510314311431
 6 -8.71919337303730  3.92326047224722 -4.55108151215122
 7 -6.29987840684068 -0.09640465816582 -1.09680477247725
 6 -7.29347887748775  0.03529746114611 -2.05775998669867
 6 -7.51094860206021 -1.21500320392039 -2.79978250085008
 6 -6.62688223702370 -2.13984355615562 -2.07306347204720
 6 -5.89185760116012 -1.41782534763476 -1.13538966936694
 6 -8.54609006680668 -1.58578870487049 -3.75609250545055
 6 -6.23075674277428 -3.55699128302830 -2.02409596469647
 8 -6.74657905340534 -4.42591028942894 -2.73602986808681
 6 -5.06379494159416 -3.58074612721272 -1.04603692349235
 6 -5.36864434183418 -4.64586002710271  0.02023569536954
 8 -5.84747051865186 -4.46883589168917  1.15485184858486
 8 -5.18850854905491 -5.89458065446545 -0.43164630923092
 6 -5.33663122732273 -6.87309916321632  0.52327415721572
 6  2.38782975617562 -5.04588570877088  0.80989494389439
 6  3.36930146514651 -3.98781894279428  1.12687058685869
 6  4.02301169136914 -3.17103997409741  0.27048068306831
 6  3.72232657155716 -3.09095403670367 -1.15754525902590
 6  5.12602902870287 -2.29355440304030  0.78074187298730
 6  6.53431830313031 -2.69509243444344  0.07999946734673
 6  7.63040836443644 -1.86020537603760  0.74840053055306
 6  9.05783660496050 -2.09530436403640  0.14569678717872
 6  9.61215759745975 -3.50636127652765  0.42534907720772
 6  10.04755533463346 -0.96554679207921  0.51011352685268
 6  11.31093839623962 -0.87296690359036 -0.13564233043304
 6  12.32781046964696  0.24201882938294  0.31992884048405
 6  13.60155261106111  0.41364623452345 -0.62453721692169
 6  14.62904120312031 -0.83920332293229 -0.50954510541054
 6  14.31365730533053  1.68007417901790 -0.22340159495950
 6  15.40208439883988  2.18014604280428 -1.14859985498550
 6  15.89872245664566  3.53922867566757 -0.74233484668467
 6  17.20222547164716  4.00736857845785 -1.48866280148015
 6  16.99688227792779  4.14814970667067 -2.90110233443344
 6  17.77797720382038  5.30120538583858 -0.85928538743874
 1 -2.58755447824782  1.02781705710571  3.40582105050505
 1 -6.39707768656866  5.68140352075207  0.74072306400640
 1 -8.72822322952295  1.25484578747875 -3.11666714551455
 1 -3.50879194399440 -3.23785910131013  1.78161622242224
 1 -1.88790591449145 -1.15271293289329  2.97617889398940
 1 -3.29943972307231 -2.56300946214622  4.36990053405341
 1 -3.41295208790879 -1.02143204760476  4.42034406420642
 1 -4.76310882258226 -1.82653173407341  3.64736868736874
 1 -2.30576589028903 -3.28276779407941 -0.25878650245024
 1 -1.32272010441044 -2.00362947924792  0.05002312391239
 1 -0.68222365586559 -3.18293958955896  2.47145136383638
 1 -1.43454817641764 -4.50543767496750  1.56618841684168
 1 -1.84336445024502  3.70370989538954  3.73767967766777
 1 -2.83664465456546  4.80261746774677  4.64969122682268
 1 -3.03345634063406  2.92702369986999  5.07141214721472
 1 -5.15068813271327  6.66332052645265  2.14420974237424
 1 -10.27461659515951  3.07295795289529 -2.89240249194919
 1 -9.96147694559456  4.74084792889289 -3.10205049574958
 1 -9.60145994579458  3.98274668866887 -5.23639884218422
 1 -7.90323983338334  4.72862260766077 -4.42808276327633
 1 -8.21615146414641  2.81541089988999 -4.80053997879788
 1 -8.51295888548855 -1.00247078997900 -4.70849184748475
 1 -8.44224520752075 -2.63788719381938 -4.02539517651765
 1 -9.43930400990099 -1.46602342574257 -3.44692159885989
 1 -4.09430678807881 -3.89486431303130 -1.60682396929693
 1  2.61425255825583 -6.07843578657866  1.09619557645765
 1  2.24627537093709 -5.24394137023702 -0.36503995359536
 1  3.69065118741874 -4.07653693549355  2.26739174677468
 1  2.78450343704370 -3.64635025612561 -1.28550109110911
 1  3.88628324162416 -2.17204076337634 -1.84666713721372
 1  4.33927610161016 -4.01189491869187 -1.56965589148915
 1  4.80278031893189 -1.30090651465147  0.63979586308631
 1  5.13345187248725 -2.36179781218122  1.74985986628663
 1  6.90954848154816 -3.82776596869687  0.30436832083208
 1  6.44683484388439 -2.66371398039804 -0.96069666516652
 1  7.45772470377038 -0.73509683478348  0.45450269576958
 1  7.65320742364236 -1.92641922502250  1.83333771907191
 1  8.67392150145015 -2.20957923312331 -1.12254559265927
 1  8.77677219591959 -4.20791956335634  0.16696290389039
 1  10.52339167996800 -3.82064626672667 -0.16833694719472
 1  9.72590165156516 -3.64482557405741  1.39259970267027
 1  9.45459461006101  0.10114584078408  0.50410577437744
 1  10.14759485698570 -0.98622515641564  1.70409994999500
 1  11.41269641094109 -1.84109414131413 -0.09397377057706
 1  10.94311039773977 -0.45657856275628 -1.28355968956896
 1  11.56228726222622  1.26910133933393  0.09515996079608
 1  12.82536736003600  0.00431162256226  1.33628190839084
 1  13.23153995469547  0.37616204850485 -1.74955719441944
 1  15.31106044434443 -1.06238445114511  0.41657733773377
 1  14.20858642964296 -1.71268028432843 -0.91043736523652
 1  15.25521651005100 -0.61217441564156 -1.51501839433943
 1  13.46739493369337  2.57018163726373 -0.01794358205821
 1  14.71732843314332  1.54691498069807  0.74435164906491
 1  16.27990964676468  1.38896750945095 -1.36599309000900
 1  15.02672825622562  2.20894480728073 -2.10581196089609
 1  15.05586699129913  4.30626600460046 -0.91282328042804
 1  16.27866063616362  3.72683932533253  0.34319421982198
 1  17.89367304870487  3.10524201540154 -1.28883796339634
 1  16.23340406080608  4.88262479137914 -3.08339069886989
 1  17.83965988948895  4.67635714901490 -3.38451305640564
 1  16.74633483368337  3.15814688468847 -3.62879091369137
 1  17.95422146934693  5.34748596609661  0.32477414161416
 1  18.63700122242224  5.62539669186919 -1.30798771317132
 1  17.12905445634564  6.08969847294729 -1.12950701200120
 1 -5.06716201760176 -7.78329776287629  0.02515897819782
 1 -6.48665309560956 -7.10495758235824  0.70700420792079
 1 -4.88016618521852 -6.76904848044804  1.46572102870287
 8 -7.76197378897890  6.86225272607261 -0.37228501250125
 1 -8.70347864496450  6.62699834473447 -2.15804148694869

