%nproc=4
%Mem=2GB
# td=(NStates=1) iop(3/107=0140000000,3/108=0140000000) iop(3/107=0140000000,3/108=0140000000) CAM-B3LYP/6-31G(d,p) 

TD

0 1
12 -6.92913548564856  0.51151029512951  0.16121374087409
 6 -4.63466057255726 -2.06335475727573  0.43347362436244
 6 -4.40583239863986  2.69670130323032  0.68757163876388
 6 -8.99731243594359  3.18836286038604 -0.14933443514351
 6 -9.49482758035804 -1.76993002260226 -0.35142520122012
 7 -4.79710478237824  0.36475587328733  0.43893292539254
 6 -4.03198046364636 -0.86952665946595  0.50043059845985
 6 -2.45565898449845 -0.59622138133813  0.71417347964796
 6 -2.42614258005801  0.94718486728673  1.06094825732573
 6 -3.91322758565857  1.37400748594859  0.71734650935094
 6 -2.04427071277128  1.25639743564356  2.38997356015602
 6 -1.52871161956196 -0.93570613401340 -0.27549622332233
 6 -0.14095221352135 -1.08262996959696  0.39459853335334
 6  0.90845192439244 -1.24163140004000 -0.89947812161216
 8  0.65022509060906 -0.94946755925593 -2.07674866506651
 8  1.90824111071107 -1.93749404800480 -0.34315923842384
 7 -6.61492323452345  2.50819118911891  0.17716146404640
 6 -5.47021758265827  3.34667331053105  0.54529082528253
 6 -5.83917813301330  4.80197988278828  0.48621348994900
 6 -7.22107282068207  4.91290738123812  0.33135971927193
 6 -7.70651235513551  3.49183799219922  0.00257508890889
 6 -4.74854977527753  5.69935736623662  0.77134480248025
 6 -7.85342690399040  6.11696861696170  0.21304082778278
 8 -7.41238515471547  7.27851946854685  0.35911376817682
 7 -8.84000755425543  0.76926778597860 -0.09867251635164
 6 -9.46580025242524  1.89478421372137 -0.28924997729773
 6 -10.86759338963896  1.59219909100910 -0.55500128132813
 6 -11.03896825432543  0.12755365976598 -0.65995685118512
 6 -9.83798546184618 -0.40549871307131 -0.41421349804981
 6 -11.97280405570557  2.59151534463446 -0.78205285608561
 6 -12.44488760926093 -0.48014157645765 -1.00587872157216
 6 -12.74287114921492 -0.74533669886989 -2.41657445214521
 7 -7.09716619951995 -1.45069763106311  0.15223257875788
 6 -8.28203086468647 -2.36632662936294 -0.22430562856286
 6 -7.77067465256526 -3.67449477187719 -0.26366737683768
 6 -6.41784740594059 -3.68389755065507 -0.14443270387039
 6 -6.10517680638064 -2.29579839433943  0.14145032933293
 6 -8.65339386288629 -4.98609598739874 -0.45170798669867
 6 -5.08725492999300 -4.43704950305031 -0.09829180348035
 8 -4.95622737143714 -5.59635017331733 -0.22706219961996
 6 -4.03409713511351 -3.51214177337734  0.21035568276828
 6 -3.25681919281928 -3.87893406890689  1.61875158815882
 8 -3.74871011111111 -4.02587932273227  2.65844451425143
 8 -1.85344701960196 -3.73657996329633  1.47416735593559
 6 -1.09701822392239 -4.00535562566257  2.72093651885189
 6  3.12213410621062 -2.08376355325533 -1.19212045614561
 6  4.28781254865487 -1.10277727882788 -0.97591312361236
 6  5.19005976137614 -0.82327919931993 -1.84060026162616
 6  5.19239322312231 -1.28367150185018 -3.22827981018102
 6  6.38633245784578  0.15815816291629 -1.60026658515852
 6  7.61273996799680 -0.54242002410241 -1.02123886118612
 6  8.54552711301130  0.46299193379338 -0.36396487698770
 6  9.83201629102910 -0.32272919321932  0.06771846614661
 6  9.47115463176318 -1.07067588228823  1.37636200500050
 6  11.15958828882888  0.71582643684368 -0.00890605220522
 6  12.51418668916892  0.07398870607061  0.36006431763176
 6  13.55669721232123  1.10488776347635  0.45630852925293
 6  14.97755409060906  0.28424170227023  0.87055171727173
 6  15.04534952305231  0.07843556305631  2.24674459845985
 6  15.99375900430043  1.36044094609461  0.33232643794379
 6  17.37073655175518  0.64463968836884  0.23278640474047
 6  18.55133468086809  1.50374756595660 -0.24339448624863
 6  19.85682788388839  1.02290078487849 -0.38627871157116
 6  19.64027382868287  0.13993942424242 -1.69633542474247
 6  20.97519468836884  1.92304372237224 -0.38840393629363
 1 -3.54913555185519  3.55679693069307  0.89218862056206
 1 -9.76209019151915  4.04728381348135 -0.20004363826383
 1 -10.35689818141814 -2.51221162046205 -0.60913373927393
 1 -2.11798431523152 -1.34689230703070  1.58822887118712
 1 -1.55796513511351  1.25430590679068  0.32382883628363
 1 -1.09107049074907  0.91197951235124  2.70604131523152
 1 -2.18354652855286  2.54781335773577  2.38912503030303
 1 -2.63041537403740  0.78254613991399  3.00979684878488
 1 -1.85864488478848 -2.10379165216522 -0.69543733053305
 1 -1.58162333133313 -0.19760123302330 -1.17659745054505
 1  0.27314531283128 -0.24284571787179  0.67239310451045
 1 -0.18942266206621 -1.88122445624562  1.33413364546455
 1 -3.75011954235424  5.94434226212621  0.08526348404840
 1 -5.31695197579758  6.62033470937094  1.26516342244224
 1 -4.24922595079508  5.41886084708471  1.67763553585359
 1 -9.12153516761676  6.09229433863386 -0.42565894169417
 1 -12.26765631923192 -1.45676654415442 -0.24255868306831
 1 -13.27450366536654 -0.01440504070407 -0.78871650805081
 1 -13.72664048714872 -1.33293540894089 -2.43770088718872
 1 -12.51630859465947  0.14022144364436 -3.08620078957896
 1 -11.87900472487249 -1.39796311331133 -2.93242985038504
 1 -10.00487967126713 -4.52363891949195 -0.98993122112211
 1 -7.90929614421442 -5.69083909650965 -0.92626227812781
 1 -9.02742002200220 -5.10277223842384  0.98833344284428
 1 -3.27485706710671 -3.69858358325833 -0.46560486728673
 1  3.25377699309931 -2.98357563136314 -0.93530924802480
 1  2.99714400320032 -2.42907882288229 -2.30732096739674
 1  4.40259758745874 -1.10302305070507  0.14916851845185
 1  4.50056311331133 -0.33802727522752 -4.02895301030103
 1  6.62206578497850 -1.74427310271027 -3.52500372427243
 1  4.59983381078108 -2.55565818011801 -3.28180236403640
 1  6.41215163706371  0.62592793019302 -2.11404402160216
 1  5.88937404680468  0.52350789858986 -0.78147241064106
 1  7.29549072797280 -1.46889508660866 -0.22755103350335
 1  8.28959435783578 -0.98374716501650 -1.94363383928393
 1  8.63592572397240  1.17339793459346 -1.32733551885189
 1  8.25378387648765  1.21827701590159  0.47312302070207
 1  10.13625607270727 -1.21268871257126 -0.65169232683268
 1  8.57248949324932 -1.82967178287829  1.43117147794780
 1  10.55103117251725 -1.66450033123312  1.86196808820882
 1  9.06515972757276 -0.49331055345535  2.21228253335334
 1  11.27072070987099  1.15988874877488 -0.91596876847685
 1  10.87817756435643  1.52746162176218  0.73075695599560
 1  12.12320986318632 -0.47674011351135  1.47666134943494
 1  12.59381153515351 -0.77960618121812 -0.06600959845985
 1  13.60874574457446  1.56268581358136 -0.74609351395139
 1  13.42156420122012  2.10168441974197  0.97930371977198
 1  14.86289771557156 -0.79427694369437  0.19717152595260
 1  14.40442034193419  0.90306070157016  2.79628240124012
 1  14.39556683018302 -1.06227389928993  2.43808130623062
 1  16.21304833793379 -0.23255683878388  2.55786226392639
 1  15.89393052795279  1.75980597399740 -0.67658763346335
 1  16.32122615521552  2.26514605010501  1.20645896909691
 1  17.47728904400440  0.12705587618762  1.09389957665767
 1  17.03413093729373 -0.18727055785579 -0.36260763816382
 1  18.19223423052306  2.29656620442044 -0.56768975727573
 1  18.68541853795380  2.42928683558356  0.43267993849385
 1  19.91346390759076  0.44851769796980  0.52474582538254
 1  19.43850216821682  0.80179522912291 -2.49153127832783
 1  20.59266355635564 -0.26953875567557 -1.80918505190519
 1  18.89172189918992 -0.54252197059706 -1.52385045974597
 1  21.36529330793079  2.25194477357736  0.47945869946995
 1  21.56140388068807  1.41391797449745 -0.89659237423742
 1  21.24980163306331  2.61838932613261 -1.01718651495150
 1  0.11023539843984 -4.09946269566957  2.26763511151115
 1 -1.40263994499450 -4.88717599129913  3.26102673927393
 1 -0.97117113041304 -2.68641711881188  3.24140829402940
 8 -11.60518889318932  3.81212601180118 -0.74823663736374
 1 -13.06545705720572  2.11115235533553 -1.12352295729573

