%nproc=4
%Mem=2GB
# td=(NStates=1) iop(3/107=0140000000,3/108=0140000000) iop(3/107=0140000000,3/108=0140000000) CAM-B3LYP/6-31G(d,p) 

TD

0 1
12 -6.78113068516852  0.58850799489949  0.20104772427243
 6 -4.39196630313031 -2.01556997879788  0.49543982098210
 6 -4.23435525092509  2.83509514261426  1.03344622622262
 6 -8.96833953865387  3.16528055215521 -0.16375587728773
 6 -9.25768386598660 -1.62927595719572 -0.88060811951195
 7 -4.65040011191119  0.40292969066907  0.57092612471247
 6 -3.85388265386539 -0.75485519231923  0.75171572697270
 6 -2.39061247984798 -0.53942570177018  1.07333939623962
 6 -2.46528649444944  1.05252540134013  1.35235739823982
 6 -3.84892115501550  1.52139222442244  0.96905167986799
 6 -2.13755004070407  1.20692248814881  2.84978954175418
 6 -1.48618736713671 -0.99545210861086  0.11998332463246
 6 -0.06989510781078 -1.29489119571957  0.32632170567057
 6  0.86900797999800 -1.52839007590759 -0.82058023182318
 8  0.72683275137514 -1.34609722222222 -1.95177616781678
 8  1.99681996859686 -2.20712101070107 -0.27367228972897
 7 -6.64976671887189  2.57620799079908  0.31908565646565
 6 -5.54467502840284  3.39659830303030  0.59405570177018
 6 -5.80608482368237  4.74947463226323  0.68332320092009
 6 -7.13021373477348  5.01663775427543  0.37040362366237
 6 -7.68835053895390  3.60479928832883  0.12812764416442
 6 -4.80858577887789  5.76646407690769  1.09147681568157
 6 -7.77205876717672  6.21289820992099  0.37337686138614
 8 -7.45678959515952  7.17668928552855  0.77808566536654
 7 -8.83316687018702  0.74527538673867 -0.45565821492149
 6 -9.46289996239624  1.97769250455046 -0.52066311861186
 6 -10.95484211451145  1.65757562866287 -0.72638842004200
 6 -11.05139949744975  0.34108501290129 -0.99018987448745
 6 -9.72022368566857 -0.33453161636164 -0.67068914561456
 6 -11.81467824312431  2.85551174427443 -1.09990464126413
 6 -12.20313343384338 -0.49086264856486 -1.35414354805481
 6 -12.05673253535354 -1.28022018721872 -2.87190998569857
 7 -6.91487797069707 -1.29449201050105 -0.15697834233423
 6 -7.96628929052905 -2.16031602830283 -0.55414861286129
 6 -7.54777236233623 -3.54279160156016 -0.61506251635164
 6 -6.23917953915392 -3.58650781168117 -0.14133239383938
 6 -5.89531582028203 -2.23859267376738  0.12935912021202
 6 -8.37327585108511 -4.74677205500550 -0.95574839073907
 6 -5.21338754325433 -4.46483228132813  0.26351437713771
 8 -4.97790953965397 -5.49520005830583  0.09590009660966
 6 -4.09298302370237 -3.32453301250125  0.68250289748975
 6 -3.44618812971297 -3.69502567806781  2.06345605860586
 8 -4.16222146224623 -3.90311704650465  3.00830950075008
 8 -2.24593626852685 -3.88791509680968  2.00593053225323
 6 -1.36437495959596 -4.18301339143914  3.34709913511351
 6  3.03491538433843 -2.53551872877288 -1.29953119721972
 6  4.14447821522152 -1.42607960906091 -1.32532806510651
 6  5.20643139853985 -1.31376824822482 -2.08349455105511
 6  5.23340732453245 -2.14001713641364 -3.25405238743874
 6  6.16364018861886 -0.23115076797680 -1.86312287078708
 6  7.36553524752475 -0.84492027412741 -1.17516425372537
 6  8.41887444774477  0.10258589318932 -0.68551703220322
 6  9.65945903530353 -0.38070499079908 -0.24712301800180
 6  9.51433895019502 -1.00262907760776  1.17517188598860
 6  10.82245457545755  0.62229708390839 -0.08455361696170
 6  12.20433570407041  0.08111941914191  0.41237954915492
 6  13.31721326392639  1.13241051575157  0.14450734913491
 6  14.74229056425643  0.45218849694969  0.37398206030603
 6  15.11610659875988  0.13529124862486  2.13315323932393
 6  15.87353698209821  1.46756165816582  0.01327453275328
 6  17.30565004310431  0.85099032343234  0.00624375047505
 6  18.19623917131713  1.95282247344734 -0.12894304110411
 6  19.69298149924992  1.30024851965197 -0.19654973867387
 6  19.90728052935293  0.34892032233223 -1.55075086628663
 6  20.87072424132413  2.50056147414741 -0.20595569146915
 1 -3.52712335063506  3.66549780078008  1.39256865856586
 1 -9.35896987948795  4.05864494959496 -0.35317895179518
 1 -9.91451394299430 -2.25364576387639 -1.26223904980498
 1 -2.13455597239724 -1.10478809660966  2.03352340064006
 1 -1.52919225782578  1.75229570577058  0.95136158955896
 1 -1.14432581628163  0.80128844324432  3.16661737283728
 1 -2.01636981088109  2.30463904030403  3.32745886368637
 1 -2.93665599809981  0.70359824512451  3.67491336043604
 1 -1.81445046534653 -1.91659293229323 -0.47096488328833
 1 -1.67556272527253 -0.32490396329633 -0.89474926572657
 1  0.41609960826083 -0.36320775407541  0.69977584278428
 1 -0.08314203400340 -2.37457379117912  0.77804803690369
 1 -4.04616914731473  6.34028185608561  0.50867582528253
 1 -5.54663494409441  6.66119879577958  1.18000490659066
 1 -4.34701572977298  5.59896885788579  1.87328510081008
 1 -8.63748676277628  6.25107021622162 -0.65434180998100
 1 -12.19082863646365 -1.42090295779578 -0.60837526472647
 1 -13.29125534053405 -0.02763636383638 -1.35400303670367
 1 -12.98298612171217 -1.88570068546855 -3.17898501560156
 1 -11.67786475027503 -0.52027460596060 -3.92688485798580
 1 -11.13812063646365 -1.87244056105611 -3.01207781518152
 1 -8.34993417671767 -5.12961951755176 -2.24069629762976
 1 -7.93193840844084 -5.86655666826683 -0.94062371427143
 1 -9.14975225522552 -4.78028999019902 -0.46253164366437
 1 -3.28790837223722 -3.69964368926893 -0.03115142194219
 1  3.35540715611561 -3.49079635343534 -0.98779449654965
 1  2.60139442824282 -2.46969288428843 -2.49562979827983
 1  4.11742907060706 -1.02050479887989 -0.33886028442844
 1  4.62796585358536 -1.21862533503350 -4.07050716571657
 1  6.19462304070407 -2.33394206960696 -3.56271749564956
 1  4.32656648404840 -3.21458407270727 -3.26074025782578
 1  6.43655407730773  0.32634797219722 -3.21848446564656
 1  5.76358146754675  0.58132368016802 -1.28983324672467
 1  7.06633781268127 -1.57472566966697 -0.17598587698770
 1  7.91968736713671 -1.43183197349735 -1.84832430833083
 1  8.69341147254725  0.74768536333633 -1.20467325262526
 1  7.70671917001700  0.58307349554956 -0.08124241584158
 1  10.02648509560956 -1.18907635133513 -0.81480863846385
 1  8.68166041034103 -1.50987980368037  0.97427578837884
 1  10.42190826022602 -1.44457833903390  1.60934282568257
 1  9.46028924052405 -0.33016423882388  1.79082038713871
 1  11.02331596939694  1.16202896279628 -1.04113128472847
 1  10.47858760536053  1.38656753235323  0.53070695099510
 1  12.24505204740474 -0.34098653815382  1.42642632593259
 1  12.56006816081608 -0.82527074767477 -0.12640563806381
 1  13.17227209720972  1.42420196519652 -0.81136004060406
 1  13.18045008980898  2.02378662996300  0.97786357575758
 1  14.88842026782678 -0.74680219621962 -0.10135832703270
 1  14.76319621952195  0.96610700620062  2.90384315731573
 1  14.15273254675467 -0.34161183308331  2.39529702780278
 1  15.99049608270827 -0.35817940104010  2.41930840854085
 1  15.59860099499950  1.88536853025303 -1.13582355705571
 1  15.67745177777778  2.11236077157716  0.63893221642164
 1  17.63467478257826  0.15684885548555  0.95971615831583
 1  17.52692021622162  0.28457662686269 -0.86340771817182
 1  18.00519552665267  2.59957650545055 -1.10575356365637
 1  18.21438143424342  2.57618152505251  0.85309197969797
 1  19.98772133333333  0.72746559275928  0.51727507830783
 1  20.21163948194819  0.82670772037204 -2.68243036823682
 1  21.09978426842684 -0.15708751055105 -1.61640577397740
 1  19.33073580058006 -0.64388210661066 -1.55428350305031
 1  20.41637841644164  3.38128770787079  0.76875762936294
 1  21.96030377067707  2.17683426612661  0.04728201320132
 1  20.96118277117712  3.14690217741774 -0.88536333263326
 1 -0.60457608270827 -4.26032878227823  2.94269261726173
 1 -2.14755443644365 -4.72688996269627  4.16998763536354
 1 -1.45913992729273 -3.28202667976798  3.97265141834183
 8 -11.46739511381138  3.97640243944394 -0.92056387008701
 1 -12.63859437093709  2.16928816891689 -1.44771537653765

