%nproc=4
%Mem=2GB
# td=(NStates=1) iop(3/107=0140000000,3/108=0140000000) iop(3/107=0140000000,3/108=0140000000) CAM-B3LYP/6-31G(d,p) 

TD

0 1
12 -6.88627119921992  0.45021416551655  0.20664828432843
 6 -4.37416452295229 -2.08552697449745  0.55937621462146
 6 -4.31319313471347  2.74457609070907  1.00733361496150
 6 -8.87087979267927  3.15087911201120 -0.30521002270227
 6 -9.23788188578858 -1.57364039363936 -0.83053311201120
 7 -4.75258032993299  0.43901329902990  0.61505053715372
 6 -4.06139340494049 -0.77893760056006  0.77254781018102
 6 -2.46544996359636 -0.53208496769677  1.15877794009401
 6 -2.62182214801480  1.03988413721372  1.46201836433643
 6 -4.04180044294429  1.44067415261526  0.95538031273127
 6 -2.18314460016002  1.34168596449645  2.92784734753475
 6 -1.59248799719972 -0.97938050145014  0.03737506380638
 6 -0.08429654795480 -1.31401310791079  0.61293036653665
 6  0.92459353855386 -1.42319955685569 -0.48255642944294
 8  0.86908697679768 -1.01163377587759 -1.60003099329933
 8  2.01472175877588 -2.16153645224522 -0.10294521702170
 7 -6.70275201740174  2.53974434443444  0.35778952685268
 6 -5.60096065696570  3.25550419361936  0.66922321852185
 6 -5.83533774897490  4.90525020982098  0.65457032563256
 6 -7.06676739013901  4.94441053155316  0.29671625492549
 6 -7.70364206810681  3.62453126152615  0.02222705410541
 6 -5.05834075437544  5.81769920042004  1.31282895089509
 6 -8.07480904220422  6.19653657375738  0.31117064076408
 8 -7.67882179837984  7.33836545314531  0.67507536433643
 7 -8.85967952145215  0.68744960416042 -0.32434508360836
 6 -9.47949162156216  1.82620735603560 -0.53007405970597
 6 -10.76430306060606  1.64972484358436 -1.04917069826983
 6 -10.97937229472947  0.29624052845285 -1.09093994949495
 6 -9.72950461376138 -0.32167033023302 -0.73801587828783
 6 -11.76946372167217  2.66956314941494 -1.39203385418542
 6 -12.15983910441044 -0.43439700200020 -1.52675080878088
 6 -11.93405026712671 -0.61998416361636 -2.84360715541554
 7 -6.95194167706771 -1.48070063136314 -0.10119276377638
 6 -7.98217087868787 -2.17686768346835 -0.41357455545555
 6 -7.68038562366237 -3.66325364776478 -0.47813882398240
 6 -6.33141876307631 -3.58381754265426 -0.22155041564156
 6 -5.88864515321532 -2.24325313981398  0.01263744804480
 6 -8.60254877837784 -4.82064944274427 -0.67246006190619
 6 -5.23286949144914 -4.50815661376138  0.03099112481248
 8 -5.16446819551955 -5.64817535583558 -0.19168866226623
 6 -3.90294401980198 -3.44167472667267  0.34978962616262
 6 -3.42404591549155 -3.71594777027703  1.71075078807881
 8 -4.21566680678068 -4.06452318711871  2.69676834663466
 8 -2.06452812771277 -3.68310461576158  1.79848978817882
 6 -1.12842136423642 -4.26671176127613  2.67418184338434
 6  3.21357325012501 -2.40525570247025 -0.90770201430143
 6  4.17084085148515 -1.37406440754075 -0.66130166246625
 6  5.13967472287229 -1.07976484788479 -1.41101730333033
 6  5.24247823162316 -1.82749588428843 -2.77313429562956
 6  6.09462328692869 -0.11473912681268 -1.06938349684968
 6  7.45295398939894 -0.66641242334233 -0.63788052535254
 6  8.49797235753575  0.31529716431643 -0.31014949544954
 6  9.86280937033703 -0.45758267856786  0.02855454975498
 6  9.87855537183718 -1.15998481318132  1.40434480328033
 6  10.97498982898290  0.60118497269727  0.11531637003700
 6  12.34647991849185  0.06160746794679  0.17163547474747
 6  13.54555609820982  0.95721299599960  0.30789368776878
 6  14.78692502770277  0.22657593569357  0.32865752785279
 6  15.00361534963496 -0.53186546704670  1.46875679967997
 6  16.00477010541054  1.23833873587359  0.14213741904190
 6  17.34219369746975  0.85191041544154 -0.19938681258126
 6  18.32293184058406  1.91338853005300 -0.42159230603060
 6  19.77377957905790  1.38919741454145 -0.72195227892789
 6  19.79600940224023  0.63047847814781 -2.05259105030503
 6  20.79714688358836  2.59772119011901 -0.68687378327833
 1 -3.65414605290529  3.60060131113111  1.24709411111111
 1 -9.67227120962096  3.88024710981098 -0.53535716961696
 1 -10.11718421002100 -2.49885028432843 -1.03690651655166
 1 -2.32881539833983 -1.02642025982598  2.13875392369237
 1 -1.84147348594860  1.39238971517152  0.71061751515151
 1 -1.19237062076208  0.97449576397640  2.92802351345135
 1 -2.11091926582658  2.41865044144414  2.92986910471047
 1 -2.92022435493549  0.83575146044604  3.44340020912091
 1 -2.34866388668867 -1.89442071507151 -0.33371115791579
 1 -1.51401657065707  0.12548107520752 -0.92259205000500
 1  0.26121411971197 -0.50069150245024  1.11581744694469
 1 -0.11826554635464 -2.18038437223722  1.29430966306631
 1 -4.15527005740574  6.23415124302430  0.70449540724072
 1 -5.80316059665967  6.62826550245024  1.44319122522252
 1 -4.80258128632863  5.37955691669167  2.19498727102710
 1 -9.10074308840884  5.80350545974597 -0.11657803360336
 1 -11.94507406100610 -1.36314718221822 -0.89190361756176
 1 -13.18372458745875  0.28338473827383 -1.57134477087709
 1 -13.00377820092009 -0.93368548394839 -3.18155527262726
 1 -11.60165712951295  0.15915333683368 -3.38481065056506
 1 -10.91002782718272 -1.30467378437844 -3.14846145354536
 1 -9.22924210751075 -4.95532208780878 -1.90151237923792
 1 -7.97511272587259 -5.85257527012701 -0.42118177007701
 1 -9.43584086408641 -4.77336929812981  0.05622023152315
 1 -3.26549613101310 -3.53260698559856 -0.72814112091209
 1  3.44918653405341 -3.27396467026703 -0.24021973907391
 1  3.04290857965797 -2.77308322332233 -2.06131636693669
 1  3.87509483718372 -0.97516026442644  0.53079668126813
 1  4.11195425242524 -1.87389086158616 -3.19546966196620
 1  5.57566114451445 -0.89828850425042 -3.53774499839984
 1  5.40758458585859 -2.98222083638364 -2.62845702950295
 1  6.18206862876288  0.77461279867987 -1.85970858805881
 1  6.02376748614862  0.64308985678568 -0.14687895129513
 1  7.10330150905091 -1.14619281638164  0.12635435703570
 1  7.53956935533553 -1.19021781208121 -1.60160963686369
 1  9.04565669706971  1.07382797759776 -0.98866165146515
 1  8.31571006910691  0.44871005920592  0.54290999939994
 1  10.19107155425542 -1.03487093079308 -0.55241239883988
 1  9.16488873317332 -1.73120193589359  1.46139450025003
 1  10.59688575797580 -1.80600448164816  1.68529042044204
 1  9.85107831943194 -0.28806002840284  2.33902520762076
 1  10.79868350615062  1.30156291619162 -0.68410558215822
 1  10.63352309890989  1.19910878647865  0.98719259955996
 1  12.30924846704670 -0.66255869536954  0.93619730303030
 1  12.35522767676768 -0.56442466306631 -0.69823282078208
 1  13.72606747674767  1.76533607860786 -0.47725663026303
 1  13.38116016081608  1.60331458275828  0.98352414181418
 1  14.95486691249125 -0.27596511251125 -0.46716490769077
 1  15.12944284418442 -0.02722232673267  2.42439521252125
 1  14.05233250675067 -1.08850652255226  1.32004950305030
 1  15.86816384948495 -1.04293787688769  1.74469094679468
 1  15.85933706860686  1.86944693809381 -0.47306728142814
 1  16.18584261686168  1.60043957945795  0.90848917211721
 1  17.89058037313731  0.16082925352535  0.46631681838184
 1  17.52403992819282  0.15067323652365 -1.34108548594859
 1  17.80649565666567  2.41850839863986 -1.13551653995399
 1  18.52312230833083  2.63891779867987  0.42967963846385
 1  20.22120468166817  0.58037088328833  0.14092744354435
 1  19.83780209820982  1.07448249784979 -2.90408253345335
 1  20.67341163116312 -0.12867466926693 -2.22426656005601
 1  18.73251597859786 -0.20971869026903 -2.02077015171517
 1  20.72284906350635  3.02198177727773  0.41503225682568
 1  21.80412815311531  2.02001858455846 -0.74597731273127
 1  20.80529718261826  3.29032651985198 -1.67002179847985
 1 -0.18545417051705 -4.53479622902290  2.12427077507751
 1 -1.74441412241224 -5.23414068776878  2.83009364596460
 1 -1.03178719201920 -3.37598607570757  3.65658981218122
 8 -11.34574294859486  3.86986178537854 -1.30446225992599
 1 -12.79320983248325  2.34766600670067 -1.25160576557656

