%nproc=4
%Mem=2GB
# td=(NStates=1) iop(3/107=0140000000,3/108=0140000000) iop(3/107=0140000000,3/108=0140000000) CAM-B3LYP/6-31G(d,p) 

TD

0 1
12 -6.76990956305631  0.69282842694269  0.09521714121412
 6 -4.56554366086609 -1.86028445024502  0.37854813181318
 6 -4.39136095149515  2.84019565266527  0.86882976457646
 6 -9.07396010071007  2.99107313141314 -0.11645114681468
 6 -9.31527962556256 -1.83594662426243 -0.50787084578458
 7 -4.76894196609661  0.48946834453445  0.46486551865187
 6 -3.96522378797880 -0.65710541734173  0.59339989538954
 6 -2.55665908450845 -0.32306406560656  0.82292435473547
 6 -2.53956392219222  1.11569171797180  1.01125328782878
 6 -4.04128039093909  1.55339542474247  0.78831360606061
 6 -1.95293157885789  1.51794359025903  2.42204676747675
 6 -1.55265401380138 -0.85631819521952 -0.28913758745875
 6 -0.23828194649465 -1.03728543514351  0.21667074057406
 6  0.77468854805481 -1.07387462436244 -0.91013918771877
 8  0.76510657875788 -0.67363997649765 -1.99134012421242
 8  1.75811609820982 -1.80343064166417 -0.35500042254225
 7 -6.59362110431043  2.61674204420442  0.24617836573657
 6 -5.61342190309031  3.26917556075608  0.60551684788479
 6 -6.04487870307031  4.71127081188119  0.65513038163816
 6 -7.40490120352035  4.82342843334333  0.35230181348135
 6 -7.90738244214421  3.43820262866287  0.15231006240624
 6 -5.25475039533953  5.98903633413341  0.94558222622262
 6 -8.31257281858186  6.11497841794179  0.15802532623262
 8 -8.02319623582358  7.11439305590559  0.55790364716472
 7 -8.79555310881088  0.60940179937994 -0.26091874097410
 6 -9.60089376177618  1.57493222852285 -0.38571962426243
 6 -10.96044267456746  1.28073794489449 -0.62183796499650
 6 -10.99432378987899 -0.05462455805581 -0.85545640114011
 6 -9.58950061336133 -0.60079824302430 -0.54178625532553
 6 -12.08894566986699  2.26248244134413 -0.67711236203620
 6 -12.13673679417942 -0.77721128342834 -1.11195932963296
 6 -12.22220908300830 -0.97160932613261 -2.68781157585759
 7 -6.95752223512351 -1.33176573787379  0.10928828432843
 6 -8.14365702730273 -2.39127912461246 -0.05904910291029
 6 -7.72691027612761 -3.76819414181418 -0.07500851095110
 6 -6.37488310951095 -3.60871003190319  0.13998573797380
 6 -6.05349163786379 -2.17267608210821  0.18102428672867
 6 -8.68346687018702 -4.94181155895590 -0.41059387528753
 6 -4.98080428492849 -4.34455025312531  0.13273129882988
 8 -4.61530327902790 -5.52991352965297 -0.11051054445445
 6 -3.86420014541454 -3.25470602980298  0.34739938713871
 6 -3.16622013291329 -3.56550272577258  1.82332204520452
 8 -3.83863910401040 -3.87272400720072  2.79437810761076
 8 -1.73333500840084 -3.47451375667567  1.78630857005701
 6 -1.05988451055106 -3.92693778387839  2.98682310751075
 6  2.98937082988299 -2.06613179007901 -1.18855009910991
 6  4.16821058845885 -1.16600360146015 -1.18216374867487
 6  5.16110686608661 -0.73807067846785 -2.07540374197420
 6  5.30954493829383 -1.39074220892089 -3.62772975517552
 6  6.17557138173817  0.22270461756176 -1.69050560906091
 6  7.46967566156616 -0.57554333643364 -1.16095283258326
 6  8.57353991429143  0.19938557315732 -0.69411789228923
 6  9.83979706910691 -0.30290721102110 -0.15890419611961
 6  9.72807032333233 -0.87722653735374  1.12121649044904
 6  10.95254758475848  0.63389824402440 -0.38791395299530
 6  12.37382265276528  0.09712101930193  0.01515982718272
 6  13.52281382398240  1.19242651735173  0.23818671707171
 6  14.91874821002100  0.25641891999200  0.56573123522352
 6  14.96113110121012 -0.23750603110311  1.92884280828083
 6  16.10629025742574  1.12098700070007  0.33873707900790
 6  17.55935541364136  0.46344156855686  0.36118924502450
 6  18.70996054345435  1.48349554075408  0.01474132733273
 6  20.06036823792379  0.72112060686069  0.06132604890489
 6  20.26690649194920 -0.41456602630263 -1.33819961116112
 6  21.07934510341034  1.91503292129213  0.10036494059406
 1 -4.00017065536554  3.40500175117512  1.20027942964297
 1 -9.78089207170717  3.70925001010101 -0.00481411531153
 1 -10.15289778137814 -2.25841624092409 -1.32808563446345
 1 -2.18443095989599 -0.93860147794780  1.66431647994800
 1 -1.71244058265827  1.86601707790779  0.32518897229723
 1 -0.54946633033303  1.43279159355936  2.56357706880688
 1 -2.17235540944094  2.85608418481848  2.22981909970997
 1 -2.48165049754975  0.81798968426843  3.22803867296730
 1 -1.81760078037804 -2.02406367936794 -0.72938072487249
 1 -1.47835300430043 -0.12856432933293 -0.93854364516452
 1  0.03578157645765 -0.03652508580858  0.84192005720572
 1 -0.02969668946895 -1.93064939873987  0.60155038713871
 1 -4.54223875427543  5.93799162706271  0.17364232193219
 1 -5.61585186578658  6.81709438533853  0.66976388248825
 1 -4.81093212141214  6.38182714371437  2.22288006030603
 1 -9.20225323942394  5.84564967416742 -0.32795917171717
 1 -12.30177973157316 -1.68844971247125 -0.60446487368737
 1 -13.04821103610361 -0.58495209540954 -0.56755439183918
 1 -12.94240206330633 -2.22637475287529 -2.93193031013101
 1 -13.06784374817482  0.21666908840884 -3.08303047254726
 1 -10.62944976937694 -0.86126944394439 -3.21228783618362
 1 -9.18957814111411 -4.59284584018402 -1.53639586758676
 1 -8.04374958955896 -5.89885989858986 -0.27085673757376
 1 -9.32348962896290 -5.06725868706871  0.44978958845885
 1 -2.99540912231223 -3.12557628252825 -0.49922822962296
 1  3.24310592599260 -3.13335060886089 -1.02938865596560
 1  2.59274356315632 -2.63494940994099 -2.21088132343234
 1  4.29813714141414 -0.51259400780078 -0.02215861426143
 1  4.38895195219522 -1.07058053055305 -4.08456857185719
 1  5.98807238563856 -1.03834250965097 -3.98882010591059
 1  5.53783761116112 -2.36542915721572 -3.59648383218322
 1  6.11808223012301  1.05144048144815 -2.45405802300230
 1  5.98744385378538  0.82309785758576 -0.62832709610961
 1  7.14721590049005 -1.36432462956296 -0.50496877527753
 1  7.69860525892589 -1.30151894219422 -1.99192866876688
 1  8.89142127352735  1.02312290709071 -1.33278606390639
 1  8.51910040814082  0.79537472567257  0.17259296769677
 1  10.32563501060106 -0.82010945464546 -1.10954811241124
 1  9.13196544084409 -1.80372918861886  0.85805416621662
 1  10.59874594399440 -1.19204308550855  1.65412730413041
 1  9.39047225882588 -0.06876809920992  1.80462176727673
 1  11.03174681248125  1.09651241114111 -1.44171134273427
 1  10.75928567516751  1.71189006460646  0.47846172647265
 1  12.37650519271927 -0.52879531903190  1.13830751405140
 1  12.63129528352835 -0.62742096269627 -0.65846884438444
 1  13.49286415641564  1.83585313031303 -0.63834273887389
 1  13.16990903570357  2.09783403470347  0.95473126252625
 1  14.67907933373337 -0.43484100010001 -0.13440163136314
 1  15.04866476637664  0.47069746524652  2.64788756175618
 1  13.87847512101210 -0.63463113501350  2.25211270937094
 1  15.93496052915292 -1.14280786388639  1.78797527522752
 1  15.90531166606661  1.66861685508551 -0.70171014571457
 1  15.95471950455046  1.89360889638964  1.03243156635664
 1  17.71226254135414 -0.44769159855986  1.18864905160516
 1  17.40393791799180 -0.16030786158616 -0.40010138753875
 1  18.50389539663967  1.85039158695869 -0.92319530783078
 1  18.61057105320532  1.99404331123112  1.06928359885989
 1  19.94801736293629  0.04775762196220  1.42402575337534
 1  20.29592791079108  0.34956000560056 -2.42487461266127
 1  21.30396468646865 -1.02365416721672 -1.36095022842284
 1  19.44600732773277 -1.33085080348035 -1.18434650935093
 1  20.79401618021802  2.94355393449345  0.94792554615462
 1  22.05385312561256  1.18816539923992  0.25540282528253
 1  20.92990964386438  2.42270975817582 -1.34753955025503
 1  0.17033140804080 -3.67696044544454  2.66651499949995
 1 -1.42893257425743 -5.14165143884389  3.08087872447245
 1 -1.25542955625563 -2.83208168526853  3.60656480968097
 8 -11.96859523382338  3.48794359355936 -0.71954376807681
 1 -12.91066157765777  1.78674991509151 -1.09771037603760

