%nproc=4
%Mem=4GB
# td=(NStates=1) iop(3/107=0140000000,3/108=0140000000) iop(3/107=0140000000,3/108=0140000000) CAM-B3LYP/6-31G(d,p) 

TD

0 1
12 -5.58155966256626  1.25184005830583  0.12973157835784
 6 -5.00554094129413 -2.19550801410141 -0.47975484228423
 6 -3.46657544664466  1.10427071187119  2.86160153345335
 6 -6.17220601630163  4.54764802900290  0.74460466926693
 6 -7.93214898199820  1.20738158885889 -2.47246491999200
 7 -4.36587084038404 -0.30302849464947  0.99223056185619
 6 -4.35753928142814 -1.63346704830483  0.65910826042604
 6 -3.22490561506151 -2.31140444324432  1.55167953165317
 6 -2.80479365036504 -1.36399929082908  2.61726828292829
 6 -3.60283771117112 -0.07814044174417  2.13477806300630
 6 -3.29128216761676 -1.75738918031803  4.08398109750975
 6 -2.00175536873687 -2.59025643494349  0.76928223372337
 6 -1.06989863336334 -3.51231881248125  1.51108469646965
 6  0.21040614111411 -3.82920676137614  0.64739293399340
 8  0.43507357165717 -3.38306562016202 -0.44939117331733
 8  1.06398324402440 -4.58855847314732  1.35861046834683
 7 -4.87779859615962  2.62740211711171  1.43579381108111
 6 -4.04289637943794  2.42323974567457  2.49393999729973
 6 -3.86805630933093  3.62627112931293  3.23996455265527
 6 -4.60689124182418  4.57886941524152  2.67521679297930
 6 -5.29411551575157  3.94716281148115  1.52553864616462
 6 -2.94387975107511  3.78234561036104  4.41016520592059
 6 -4.65034156475648  6.02761018151815  3.00387989278928
 8 -4.09213926192619  6.50243813181318  3.96276017591759
 7 -6.81338513841384  2.62435233103310 -0.75986764306431
 6 -6.92065478027803  3.97752736993699 -0.34225591429143
 6 -7.94372955935594  4.56806353115311 -1.18497260676068
 6 -8.36427588088809  3.61453838373837 -2.09945889028903
 6 -7.67538642914291  2.43126913571357 -1.81446739323932
 6 -8.34696768766877  5.97015692509251 -1.15755526432643
 6 -9.35043940724072  3.82186258445845 -3.19975460826083
 6 -8.77029848354836  4.04846299249925 -4.67032343634363
 7 -6.36751517051705 -0.15341035873587 -1.02023711571157
 6 -7.25857538713871 -0.02870893949395 -2.11041525222522
 6 -7.38484599179918 -1.26360806440644 -2.74508703130313
 6 -6.55995554435444 -2.16431600340034 -2.11614778047805
 6 -5.93178159355936 -1.47387095219522 -1.12643877427743
 6 -8.33205866366637 -1.70047017301730 -3.90348724492449
 6 -6.13477714481448 -3.55180076397640 -1.91491504660466
 8 -6.39200359585959 -4.44081177957796 -2.65277154225423
 6 -5.07636619871987 -3.64772282488249 -0.87227954775478
 6 -5.41532901030103 -4.66337177827783  0.15466913871387
 8 -5.87691346294629 -4.48628763686369  1.28573493689369
 8 -5.11700139833983 -5.85128632503250 -0.36679982458246
 6 -5.44490205440544 -6.93047490079008  0.51488331813181
 6  2.32347332053205 -5.05099621982198  0.62792674707471
 6  3.44530906590659 -4.16902706360636  1.08208610841084
 6  4.10539993019302 -3.37833070317032  0.13794742974297
 6  3.78455279417942 -3.20084502580258 -1.35665517001700
 6  5.19561598739874 -2.41348639623962  0.58498229702970
 6  6.42781765306531 -2.63331625682568 -0.02692122472247
 6  7.60059538313831 -1.74340369586959  0.38641433193319
 6  8.95158597989799 -1.90681551515152 -0.20589837233723
 6  9.48619500120012 -3.29209985038504  0.06738328062806
 6  9.90632121122112 -0.80018025542554  0.33653616911691
 6  11.25308261066107 -0.74614422132213 -0.35950471667167
 6  12.15730341894189  0.31778640614061  0.22900974857486
 6  13.56485894169417  0.41695656555656 -0.51996675987599
 6  14.42754105310531 -0.84820422302230 -0.24140829172917
 6  14.27333327292729  1.72871904350435 -0.18285754055406
 6  15.52806699709971  2.02866089428943 -0.81454644964496
 6  16.04861744614461  3.43603835663566 -0.67813842704270
 6  17.32245749484948  3.84417225882588 -1.38034196939694
 6  17.06154874457446  3.96306119781978 -2.99062128632863
 6  17.84311371747174  5.23608887418742 -0.84477393629363
 1 -2.68483420622062  1.29284355975598  3.60648111651165
 1 -6.47264524332433  5.61794717511751  0.83054204590459
 1 -8.41174158135814  1.37784808770877 -3.57105258405841
 1 -3.51790285508551 -3.40770608600860  1.92672073287329
 1 -1.77758488238824 -1.11487914951495  2.39598087418742
 1 -2.73666344544454 -2.61047420862086  4.14806835083508
 1 -3.16389718241824 -0.91151105550555  4.63437546734674
 1 -4.38344085578558 -1.83470255115511  4.15727967846785
 1 -2.56217153085309 -3.26280579787979  0.00320969716972
 1 -1.51873970637064 -1.74077319361936  0.30173829542954
 1 -0.77572300580058 -3.08694999059906  2.44786900560056
 1 -1.68305302690269 -4.49330646184618  1.62927472547255
 1 -1.75586570037004  4.00906043044304  4.04205011471147
 1 -3.37144813491349  4.74643184918492  4.98055431313131
 1 -2.91210420542054  2.91970296779678  5.18262326832683
 1 -5.02364542844284  6.71789598399840  2.14198952035203
 1 -10.27900703420342  3.08789944704470 -3.25875912761276
 1 -9.85394619251925  4.61275511961196 -2.86432672337234
 1 -9.39034883468347  4.31996041004100 -5.48422362466247
 1 -7.88470798019802  4.92017176257626 -4.34858481348135
 1 -8.19135898489849  3.06950630943094 -5.12603252805280
 1 -8.06798438803880 -1.01025156805680 -4.66153715201520
 1 -7.98085906890689 -2.74313771887189 -4.19820245724572
 1 -9.45467554705471 -1.75764258765877 -3.81991889858986
 1 -4.16803416081608 -3.88142296889689 -1.43736702360236
 1  2.37097823082308 -6.05987393039304  0.97911386828683
 1  2.09800054345435 -4.97164414051405 -0.35392884248425
 1  3.66419854215421 -4.08273755555556  2.08802380998100
 1  2.79640462716272 -3.31443706480648 -1.69899244024402
 1  3.82668728202820 -2.24717827712771 -1.72282475297530
 1  4.37167934193419 -3.72314604380438 -1.86707563346335
 1  4.75214525542554 -1.39688611261126  0.40135201870187
 1  5.24670319761976 -2.48294992739274  1.74239912021202
 1  6.87172469916992 -3.67402059415942  0.18162604660466
 1  6.38613877427743 -2.35654326332633 -1.11319191469147
 1  7.32783171447145 -0.71615494059406  0.24354159965997
 1  7.80662276517652 -1.89261584468447  1.34540892619262
 1  8.82270637993799 -1.80656893209321 -1.40526386448645
 1  8.95097961666167 -4.18628740014001 -0.37603139553955
 1  10.66204554535454 -3.42710691279128 -0.30590070357036
 1  9.68841790319032 -3.41573266476648  1.14829527222722
 1  9.38819797039704 -0.02377665146515  0.21232659645965
 1  10.12652274977498 -0.95148168206821  1.42468200820082
 1  11.84018916021602 -1.72480251215122 -0.11594596779678
 1  11.18828491519152 -0.59822272717272 -1.37138847244724
 1  11.70396142964296  1.30736516571657 -0.08955851105111
 1  12.52837766106611 -0.04874368296830  1.21851013121312
 1  13.15030183088309  0.71304573687369 -1.55335757445745
 1  14.54569390769077 -0.84005221792179  0.91361704170417
 1  13.84329990099010 -1.63574259055906 -0.59185550705071
 1  15.32386337473747 -0.80337353555355 -0.77650454295430
 1  13.71892008620862  2.49525414451445 -0.21590337803780
 1  14.73427012731273  1.83705399459946  0.77325453935394
 1  16.37510916671667  1.36606521922192 -0.59311580228023
 1  15.34769035243524  1.96705061786179 -1.90509188888889
 1  15.28028943354336  4.29778515651565 -1.05175717381738
 1  16.11998476857686  3.57677431883188  0.51204110451045
 1  18.15496917831783  3.22805429662966 -1.16075515511551
 1  16.16859758015801  4.79860638953895 -3.10290265006501
 1  18.09699562306231  4.31315082838284 -3.26521112621262
 1  16.98798899909991  3.05367643764376 -3.44392242684268
 1  17.99832587978798  5.09395061256126  0.22266393059306
 1  18.74857237953795  5.49882403460346 -1.35655256965697
 1  17.09226077697770  5.98230773387339 -0.93270733203320
 1 -5.22280758215822 -7.70735016811681 -0.28443198089809
 1 -6.59090352065207 -6.76096318291829  1.25906941444144
 1 -4.48063623222322 -6.80472204780478  1.25653010961096
 8 -7.81466905850585  6.82770927172717 -0.38677646164616
 1 -8.79546784388439  6.36080172507251 -2.00823650645065

