%nproc=4
%Mem=2GB
# td=(NStates=1) iop(3/107=0140000000,3/108=0140000000) iop(3/107=0140000000,3/108=0140000000) CAM-B3LYP/6-31G(d,p) 

TD

0 1
12 -6.61018359045905  0.50208935303530  0.09850747024702
 6 -4.53182028852885 -1.91898031983198  0.33903418041804
 6 -4.27581939733973  2.76950858395840  1.00715359695970
 6 -9.05065777047705  3.01356538063806 -0.11230073177318
 6 -9.34927302490249 -1.74653768336834 -0.68496855555556
 7 -4.66784185608561  0.45972537023702  0.56352538463846
 6 -3.96324358995900 -0.71317102390239  0.62825338073807
 6 -2.37793121172117 -0.40259201840184  1.03116517881788
 6 -2.40636060186019  1.18716886568657  1.30215237773777
 6 -4.02338860176018  1.51753183838384  0.92119689438944
 6 -2.12675896159616  1.61137293319332  2.57082164496450
 6 -1.40950969936994 -0.86951951535153 -0.22430110381038
 6 -0.18717683598360 -1.37562926952695  0.18047712121212
 6  0.85020609980998 -1.48027526442644 -0.83300147394739
 8  0.84976504460446 -1.21078369086909 -2.00204119431943
 8  1.85096538313831 -1.95586588518852 -0.10272519501950
 7 -6.70102184438444  2.56800717071707  0.34060780868087
 6 -5.49337989888989  3.30107875107511  0.69305560176018
 6 -5.99616383158316  4.83549323412341  0.70552542114211
 6 -7.27622833623362  4.82896898739874  0.25419200250025
 6 -7.80407211111111  3.50350915931593  0.15187001840184
 6 -5.09746466676668  5.98163559405941  1.02618028602860
 6 -8.17668923022302  6.11740866096610  0.21928145184518
 8 -7.95243916011601  7.23437505410541  0.68476633343334
 7 -8.80473402690269  0.73812467166717 -0.22159480858086
 6 -9.65993966636664  1.84607934323432 -0.41067211951195
 6 -10.97980461076108  1.45343521462146 -0.89687546874687
 6 -10.95352971047105  0.01359226362636 -0.88426928242824
 6 -9.65147681098110 -0.44345250845085 -0.61521359805981
 6 -12.10655743104310  2.34472066516652 -0.98527317811781
 6 -12.16387950845084 -0.92233579587959 -1.23593172687269
 6 -12.16195305740574 -1.06689885508551 -2.66239903460346
 7 -6.91474795769577 -1.36779934123412 -0.15108775327533
 6 -8.00867352895289 -2.24830482718272 -0.50947414541454
 6 -7.44301188628863 -3.52781010341034 -0.50303131323132
 6 -6.04563018421842 -3.63474263516352 -0.17150541114111
 6 -5.83303959265927 -2.13946276077608 -0.00714453015302
 6 -8.05084360786079 -4.78933631143114 -0.98575139103910
 6 -4.88111431593159 -4.30653645174517 -0.03528550285028
 8 -4.66228797749775 -5.55172571087109 -0.16240573397340
 6 -3.85141886728673 -3.27521808100810  0.48179282648265
 6 -3.35962947384738 -3.56370254575458  1.84295400840084
 8 -3.91721696179618 -4.02909964476448  2.93695236503650
 8 -2.06601827672767 -3.39215552085209  1.96025596479648
 6 -1.30131865396540 -3.92752784288429  3.21946637183718
 6  3.03883577637764 -2.05737091399140 -1.14434567866787
 6  4.02457622502250 -1.00736773787379 -1.01195672797280
 6  5.22581333673367 -0.79307617901790 -1.87612381398140
 6  5.48922290609061 -1.48466160086009 -3.10356733893389
 6  6.18815263986399  0.26187853495350 -1.34248080658066
 6  7.47558625262526 -0.48703448554855 -0.88589532683268
 6  8.44325688598860  0.48254388898890 -0.46514499499950
 6  9.63558664806481 -0.23481040134013  0.22266396069607
 6  9.27560507680768 -1.07099591429143  1.57918228702870
 6  10.87239956995700  0.77535238943894  0.45262010041004
 6  12.35026029652965  0.01291259845985  0.33612192339234
 6  13.48014955755576  0.84760203490349  0.55255815421542
 6  14.88259459465947  0.18660193829383  0.49197385948595
 6  14.88680366846685 -0.79458173867387  1.58567849184919
 6  15.99879950835084  1.29016391839184  0.34357756305631
 6  17.34225370347035  0.62369759415942 -0.04707158105811
 6  18.58140768816882  1.56044323552355 -0.32774292109211
 6  19.92647484858486  0.88462695749575 -0.65121520522052
 6  19.76897669896990  0.16367179747975 -1.96940273147315
 6  20.99238640754076  2.03504492249225 -0.63983907980798
 1 -3.15082572087209  3.55863711471147  1.03913331503150
 1 -9.79827380988099  3.84705379047905 -0.19257289118912
 1 -10.01976446804681 -2.46103650295030 -0.81188401430143
 1 -2.20832334913491 -0.79121673947395  1.85167521582158
 1 -1.95661500010001  1.74640511671167  0.49269572297230
 1 -1.08001938563856  1.09910822522252  2.73809452055205
 1 -2.26870504440444  2.63719229562956  2.68498461626163
 1 -3.11649398189819  1.27913579887989  3.06002187128713
 1 -1.85860488078808 -1.54189546254625 -1.04892267906791
 1 -1.32144731373137 -0.19593106600660 -1.00670046084608
 1  0.09904790309031 -0.93497493079308  1.09185505070507
 1 -0.42183590339034 -2.21647798159816  0.61934216631663
 1 -4.32663719411941  6.36269409730973  0.26546150385039
 1 -5.72307258785879  6.95731840774077  0.89985689178918
 1 -4.61837286548655  6.28073703470347  2.25500327262726
 1 -9.43962697679768  5.87585269446945 -0.16048242404240
 1 -12.29090864446445 -1.72009287678768 -0.59172359955996
 1 -13.16350256525653 -0.31633523372337 -0.91144878127813
 1 -13.01932975607561 -1.66825894129413 -2.68247536463646
 1 -12.43070003380338 -0.18029060756076 -3.47214938443844
 1 -11.33047987238724 -1.91449476647665 -2.91010761816181
 1 -8.28436762006200 -5.02953950955096 -2.39500172817282
 1 -7.38140335493549 -5.48312832543254 -0.61531118301830
 1 -8.88417569756976 -4.89721168236824 -0.38040343084308
 1 -2.79348893029303 -3.25587931283128 -0.19122742954295
 1  3.34755637103710 -2.91525879967997 -0.87324304140414
 1  2.57170145894590 -1.96455237023702 -2.19123935923592
 1  3.82841016871687 -0.54608735713571 -0.19113551195119
 1  4.55678873587359 -1.29296276877688 -4.09907002200220
 1  6.38494207260726 -0.98310698609861 -3.93944516841684
 1  6.00196402380238 -2.72436505080508 -2.80917510131013
 1  6.63566398829883  0.95015035243524 -2.42651526872687
 1  5.91205631503150  1.09556510431043 -0.54564882828283
 1  7.16619779867987 -1.14248244534453  0.10446216781678
 1  7.70624602300230 -1.00365915621562 -1.78596807270727
 1  8.72226435783578  0.96728732353235 -1.18475126042604
 1  7.66811530963096  1.03104829302930  0.30013572197220
 1  9.99422186928693 -0.91383882758276 -0.43260041764177
 1  8.95654789908991 -2.14949376507651  1.34455281608161
 1  10.20208627802780 -1.30176405760576  1.96431832323232
 1  8.62362557415742 -0.42519374177418  2.22422372747275
 1  10.90100373817382  1.48457121702170 -0.36719389098910
 1  10.44270401700170  1.43411228682868  1.61659553985399
 1  12.78695623782378 -0.92042448194820  1.16107979127913
 1  12.17095924992499 -0.73261148174818 -0.65420841834183
 1  13.28703357335734  1.57759730473047 -0.18747765236524
 1  13.23910595539554  1.57578182948295  1.40159594899490
 1  14.85158658445845 -0.40571808780878 -0.54418260946095
 1  14.56508640854085 -0.04436404090409  2.58806157915792
 1  14.41291856535653 -1.71154882678268  1.94393189128913
 1  15.91973900700070 -1.07201078417842  1.62942942064206
 1  15.61898303320332  2.08335832923292 -0.37602757745775
 1  16.37760179277928  1.75122465796580  1.16833515671567
 1  17.96455777087709 -0.37133396279628  0.81072125882588
 1  16.82658018221822  0.18324649384939 -1.01957333473347
 1  18.08724373147315  2.18404495229523 -1.18742173047305
 1  18.52782277837784  1.79765367226723  0.58753542404240
 1  20.23173573477348  0.09663250945095  0.26909025982598
 1  19.58431674967497  0.95257030663066 -2.62138426362636
 1  20.74202849284928 -0.26362816461646 -2.20969510291029
 1  18.87755048204821 -0.54037175557556 -1.95882395709571
 1  20.62379915851585  2.30075965506551  0.48280903450345
 1  22.10079782008201  1.60766734943494 -0.81535425042504
 1  20.67952460536053  2.83362084928493 -1.57517231353135
 1  0.25448982388239 -3.26484923432343  2.87310565856586
 1 -1.48195787678768 -5.26398367206721  2.92495313191319
 1 -2.22982699599960 -3.02395087218722  4.18691284448445
 8 -12.07486586088609  3.64756955615562 -0.89159097279728
 1 -13.21687219871987  1.83638487858786 -1.46057666266627

