%nproc=4
%Mem=2GB
# td=(NStates=1) iop(3/107=0140000000,3/108=0140000000) iop(3/107=0140000000,3/108=0140000000) CAM-B3LYP/6-31G(d,p) 

TD

0 1
12 -6.78742131423142  0.58290743484348  0.13710132963296
 6 -4.55512261876188 -1.99478790059006  0.45412568956896
 6 -4.40088190359036  2.77074870797080  0.90267314891489
 6 -8.92409511421142  3.17367139123912 -0.15622512421242
 6 -9.20665876347635 -1.67587061666167 -0.60872093079308
 7 -4.67768284018402  0.49245864356436  0.56254528662866
 6 -3.99282654825483 -0.80611031783178  0.52040259565957
 6 -2.53906732533253 -0.40986274547455  1.00033209550955
 6 -2.50282024782478  1.00497064586459  1.15133729622962
 6 -3.92651891479148  1.52004208940894  0.92635741044104
 6 -2.20952723842384  1.37083887978798  2.56115067786779
 6 -1.54126287468747 -0.91011357475748 -0.14487316101610
 6 -0.05643376167617 -1.10111181778178  0.26612568606861
 6  0.89280035923592 -1.25900313721372 -0.83231140494049
 8  0.84162423052305 -0.75863847634763 -1.95591658185819
 8  1.91191147774778 -2.13777407600760 -0.41061598409841
 7 -6.67545928812881  2.58005837583758  0.17492124002400
 6 -5.55537609850985  3.32095073827383  0.56254255045505
 6 -5.77591180638064  4.78577826262626  0.50242511111111
 6 -7.09826053945395  4.97268335883588  0.21661824512451
 6 -7.73649535343534  3.55926473487349  0.16228105950595
 6 -4.85806072637264  5.94048147864786  0.82908057605761
 6 -7.88639020032003  6.22048896899690 -0.09632010831083
 8 -7.51417533373337  7.18572018861886  0.52406026282628
 7 -8.77139069256926  0.79049990919092 -0.24901755085509
 6 -9.51998567096710  1.98464319961996 -0.37963901620162
 6 -10.96224285458546  1.59533940504050 -0.82523830503050
 6 -11.14872923042304  0.11930283468347 -0.94697555305530
 6 -9.77928959225923 -0.40386855005501 -0.53640571727173
 6 -12.14435121042104  2.42882907600760 -1.00253490429043
 6 -12.23663678417842 -0.67525108740874 -1.26465459915992
 6 -12.19229609170917 -0.95255742094209 -2.69841263596360
 7 -6.83182966586659 -1.42299486078608 -0.00942358685869
 6 -7.98598125972597 -2.20562055875588 -0.40633383138314
 6 -7.60489807490749 -3.58310563296330 -0.34896590669067
 6 -6.25577119831983 -3.65264442534253 -0.05806406700670
 6 -5.90110639933993 -2.22262107660766  0.18136432073207
 6 -8.37354587808781 -4.83906128392839 -0.38647146304630
 6 -5.10611681618162 -4.44121992009201  0.11682970867087
 8 -4.96410815951595 -5.67617815611561  0.16141664826483
 6 -3.93570729612961 -3.42672323152315  0.47566221342134
 6 -3.16985049594959 -3.72602877837784  1.86725643864386
 8 -3.67253249334934 -4.11386812161216  2.84346301610161
 8 -1.72704437933793 -3.54084038933893  1.63474341354135
 6 -1.04168269036904 -4.04904999509951  2.82002642784278
 6  2.91577347014701 -2.09525470237024 -1.39303054715472
 6  4.13283705110511 -1.19469647074707 -0.97575310761076
 6  5.00948170357036 -0.88418528992899 -1.75936213781378
 6  5.41762574637464 -1.62143527822782 -3.21904888708871
 6  6.12040586518652  0.22525487258726 -1.22437899639964
 6  7.41349004300430 -0.64445022712271 -0.78753549084908
 6  8.52352491279128  0.22264789938994 -0.41214969546955
 6  9.85356844624462 -0.63814073437344  0.11633332763276
 6  9.43661117741774 -1.41052986768677  1.36386075487549
 6  10.98187051705171  0.43462831703170  0.35559039743974
 6  12.22799807030703 -0.20856954975498  0.18463677487749
 6  13.39100064266427  0.75114238893889  0.37840073847385
 6  14.82225856105611  0.27469074717472  0.46859152125212
 6  14.94848983708371 -0.32273455395540  1.88255817981798
 6  15.91354098249825  1.36551145314531  0.05091829712971
 6  17.20443992209221  0.60954617901790 -0.10890776467647
 6  18.29623917131713  1.80094728592859 -0.13082322912291
 6  19.71749395049505  1.12179067386739 -0.32034211791179
 6  19.91248104940494  0.54613004330433 -1.89744553575358
 6  20.57005417431743  2.33249466746675 -0.07434253015302
 1 -3.87568820712071  3.80381163216322  1.39365876757676
 1 -10.08988297079708  4.01560064516452 -0.16263989788979
 1 -10.04093658525852 -2.47244764406441 -1.00187301320132
 1 -2.31963448024803 -0.91375899369937  1.91640168846885
 1 -1.73448278687869  1.64133460966097  0.45306175957596
 1 -1.14197558125813  1.02832114651465  2.74883559465947
 1 -2.04185235913591  2.40198877527753  2.72971908970897
 1 -3.24226655915592  1.27546543184318  3.51834770387039
 1 -2.27035605590559 -1.64111538453845 -0.90083787058706
 1 -1.42703787278728 -0.38844031693169 -0.84556434723472
 1 -0.23430543224322 -0.28206964026403  0.85376124132413
 1  0.05287156735674 -2.00922725652565  0.82106233833383
 1 -4.27580211061106  6.24287211511151 -0.43996903920392
 1 -5.23943422402240  6.86960963686369  1.34107101320132
 1 -3.87517854605461  5.54887384838484  1.41118889118912
 1 -8.78624163826383  6.31953706290629 -0.50156653245325
 1 -12.22957251085109 -1.66422729022902 -0.70169459665967
 1 -13.00489670467047 -0.22985658585859 -0.82402003840384
 1 -13.00178800190019 -1.67421953735374 -2.85733285038504
 1 -12.17854481828183 -0.17201978047805 -3.16369853935394
 1 -11.21614843924393 -1.44130744774477 -3.01963857125713
 1 -8.51434061736174 -4.89212576817682 -1.64233646164616
 1 -7.89172438703871 -5.91562157475748  0.12337268536854
 1 -9.09735701570157 -5.01199316051605  0.35906051555155
 1 -3.44306388778878 -3.52807653255325 -0.04299260606061
 1  2.98021963736374 -3.16918419221922 -1.22223794089409
 1  2.64303859265927 -2.22527844284428 -2.35561579687969
 1  3.64225155285529 -0.97294004240424  0.17044064566457
 1  4.53137619461946 -1.83090656315632 -3.90271038603860
 1  6.18138171657166 -1.29025770117012 -3.31597282118212
 1  5.60115394279428 -2.24081669596960 -2.97179136293629
 1  6.38642906480648  0.99276461386139 -1.99989260646065
 1  5.54758986838684  0.68768431623162 -0.42734699809981
 1  7.23613479237924 -1.47739593669367  0.20548226982698
 1  7.56212161056106 -1.34721351165117 -1.60750022592259
 1  9.12154428582858  1.00323091789179 -1.63471625692569
 1  8.28278677677768  1.13297848604861  0.51023673207321
 1  10.34386683378338 -1.45140258395840 -0.78333549114911
 1  8.80578282258226 -2.33695251095109  0.90981934273427
 1  10.62230830023002 -1.80150403160316  2.07422931433143
 1  8.68451166276628 -0.63571479387939  2.40098140324032
 1  10.72617625542554  1.09724248414841 -0.29378655025503
 1  10.84072381898190  0.84542341794179  1.27539141944194
 1  12.25887342954295 -0.99755219471947  0.86608029132913
 1  12.58578073207321 -0.86424464506451 -0.85301829932993
 1  13.31137600760076  1.40607015201520 -0.47515642024202
 1  13.49712175697570  1.63100735203520  1.34552034143414
 1  14.80734216001600 -0.64743225922592 -0.27157534873487
 1  14.60911081098110  0.61493188868887  2.56734950795080
 1  14.32371964546455 -1.31008868076808  2.10662816091609
 1  15.86032306540654 -0.73588717181718  1.87652413011301
 1  15.54572570747075  1.96510650405041 -0.63482345704570
 1  16.18026205880588  2.24246378187819  1.02700102330233
 1  17.44697601270127  0.07698086868687  0.76554674137414
 1  17.18724624882488  0.03677184638464 -1.22989436683668
 1  17.99899490659066  2.46071261906191 -1.12438542684268
 1  18.27653764986499  2.42759666656666  0.72873954445445
 1  19.83951651285129  0.19863270947095  0.67650100090009
 1  20.12873119111911  1.67902295189519 -2.67942006720672
 1  20.96944123412341 -0.23298510031003 -1.92013614701470
 1  18.85930865786579 -0.23020073847385 -2.11897997269727
 1  20.39800657925793  2.88029760886089  0.97607836143614
 1  21.60648838913891  2.27908449114912 -0.14223693869387
 1  20.56897355025502  3.20185767296730 -0.77050184648465
 1  0.02707708260826 -4.63575632503250  2.15273362136214
 1 -1.69587926892689 -4.67718499219922  3.36692732933293
 1 -0.75750976427643 -3.27586606370637  3.53353750695070
 8 -11.95690406470647  3.67664246344634 -0.84074588828883
 1 -12.96643715521552  1.92747398749875 -1.30026063106311

