%nproc=4
%Mem=2GB
# td=(NStates=1) iop(3/107=0140000000,3/108=0140000000) iop(3/107=0140000000,3/108=0140000000) CAM-B3LYP/6-31G(d,p) 

TD

0 1
12 -6.87365993809381  0.56838598269827  0.12575019451945
 6 -4.56338344484448 -1.97285570737074  0.41218149514951
 6 -4.07809962536254  2.98176981008101  0.97082996459646
 6 -8.80661336603660  3.16347037113711 -0.28767826952695
 6 -9.35890398799880 -1.69466249584958 -0.53887394609461
 7 -4.72649772167217  0.45666506420642  0.65921495359536
 6 -3.92279954555456 -0.78488819561956  0.59310986638664
 6 -2.44580799939994 -0.46942870207021  0.95026708900890
 6 -2.33206317211721  1.09966011481148  1.30889305180518
 6 -3.79988625152515  1.64191427662766  0.94181895659566
 6 -2.20113639933993  1.24749654555456  2.81641620442044
 6 -1.50922967136714 -0.77843040644064 -0.29506818051805
 6 -0.11424954325433 -1.21654336093609  0.28542761626163
 6  0.89570064926493 -1.36862409930993 -0.83795196899690
 8  0.94632470057006 -0.73905651815182 -1.93999498969897
 8  1.93079336593659 -2.17446774537454 -0.41675659815982
 7 -6.59475121732173  2.53547391739174  0.38832258015802
 6 -5.39070963186319  3.33405204840484  0.84898119431943
 6 -5.82000621582158  4.81123080788079  0.65396026462646
 6 -7.15219593299330  4.82333842434243  0.28204478777878
 6 -7.63959566346635  3.47736654505451  0.04851968336834
 6 -4.97517243754375  5.87973540404040  1.05013268126813
 6 -8.11701326262626  5.95912283238324  0.21239076277628
 8 -7.61931584778478  7.22835445204520  0.46831468826883
 7 -8.88972252575257  0.68589944914491 -0.33884653375338
 6 -9.51159483188319  1.88704343964396 -0.43304435673567
 6 -10.82857948824883  1.64684455555556 -0.87473325452545
 6 -10.97820217771777  0.14966587098710 -0.95307616311631
 6 -9.62768443174317 -0.43183134633463 -0.51558363506351
 6 -11.94881165646565  2.56797299039904 -1.18738338913891
 6 -12.22611573207321 -0.71818538083808 -1.35800393409341
 6 -12.11820868296830 -1.24187635283528 -2.80195298999900
 7 -6.85500198309831 -1.41322388368837 -0.08147079157916
 6 -8.02783544514451 -2.23121311801180 -0.27642084008401
 6 -7.62822040714071 -3.62559988238824 -0.44300531063106
 6 -6.27493311451145 -3.73226238713871  0.01168290769077
 6 -5.97537382608261 -2.19808862336234  0.17905408970897
 6 -8.30584910841084 -4.77372475027503 -0.79248206410641
 6 -5.01313751825182 -4.41137693579358  0.13583160886089
 8 -4.67180892959296 -5.46853739203920 -0.18477797119712
 6 -3.77796152155216 -3.33435399459946  0.47345199239924
 6 -3.32428593949395 -3.64018019351935  1.79488920192019
 8 -3.95380062016202 -3.85950268506851  2.87332600240024
 8 -2.11117279217922 -3.71675798109811  1.73916385558556
 6 -1.21994051615162 -4.01171626172617  2.96409083428343
 6  3.07831972477248 -2.27197237413741 -1.31464270837084
 6  4.01631539893989 -1.12298930003000 -0.98582411471147
 6  4.98608936433643 -0.63722059345935 -1.71895809740974
 6  5.26274025782578 -1.35329846454646 -3.11931891409141
 6  6.09230305490549  0.22650499759976 -1.18364492299230
 6  7.29164785878588 -0.73874965706571 -0.67306404370437
 6  8.30382294259426  0.26816245084508 -0.25722420292029
 6  9.70280336973697 -0.47742466276628  0.18847054135414
 6  9.44895241154115 -1.31957077177718  1.61276564536454
 6  10.90393272327233  0.55792064626463  0.19702454085409
 6  12.29023429392939 -0.27793648644864  0.27897620882088
 6  13.39455099769977  0.79458673337334  0.23698659705971
 6  14.81621795699570  0.08395167326733  0.37880254235424
 6  14.99203419151915 -0.55719800030003  1.84244416841684
 6  15.88827845624563  1.26712161416142  0.17793099839984
 6  17.33125260336034  0.74700992539254 -0.03451032493249
 6  18.29925947334734  1.82062925412541 -0.60300044684468
 6  19.61342354345435  1.29454794959496 -0.57572765646565
 6  19.71755155645565  0.43614904520452 -1.81645743694369
 6  20.78484565346535  2.32978439643964 -0.47857295319532
 1 -3.51857249554956  3.85818706970697  1.50893029472947
 1 -9.32875685818582  4.16904598969897 -0.49427306120612
 1 -10.41403389498950 -2.44571497079708 -0.59370219611961
 1 -2.20613313011301 -1.08638625642564  1.92157220552055
 1 -1.40146948554855  1.64117459365937  0.60287674107411
 1 -1.04405578927893  0.72125043944394  3.09853056415642
 1 -2.30175834973497  2.16271484788479  3.25670178797880
 1 -2.58389072157216  0.66531441674167  3.39297516661666
 1 -1.75437445774577 -1.77454872787279 -0.86860464726473
 1 -1.33036820582058 -0.07812928582858 -1.17436722752275
 1  0.46330432873287 -0.21370280358036  0.92287815301530
 1 -0.21486520632063 -2.13757009080908  1.22721295339534
 1 -4.00262479287929  5.88659648754876  0.59817477517752
 1 -5.42662294289429  6.88690136603660  0.83225013111311
 1 -5.01217224542454  5.85591455245525  2.06969474177418
 1 -9.23482649674968  5.74764987418742 -0.19176555235524
 1 -12.27110666426643 -1.53013388088809 -0.53924835203520
 1 -13.17914412941294 -0.17381098129813 -1.08986662306231
 1 -12.98556637973797 -2.07695981138114 -3.12000911801180
 1 -12.26495345914592 -0.12912549104910 -3.51825399489949
 1 -11.44455127952795 -1.79576289328933 -3.02400900830083
 1 -8.57362654595460 -5.01860841644164 -1.64076630463046
 1 -7.72616783138314 -5.56843685628563 -0.67900755265527
 1 -9.19546682668267 -5.05186714791479 -0.53643903440344
 1 -3.07154673607361 -3.33552727762776 -0.08749705650565
 1  3.29342095749575 -3.30254752855286 -1.10231594869487
 1  2.85415970477048 -2.14408032303230 -2.58475871117112
 1  3.65023235093509 -0.53950669906991 -0.14312071047105
 1  4.75842889988999 -0.46250972347235 -4.14582469746975
 1  6.16897047544755 -1.17475615101510 -3.32899412331233
 1  4.78249207660766 -2.50076269056906 -3.33235741954195
 1  6.58545896779678  1.04774011141114 -2.09556217341734
 1  5.67000210961096  0.77804335213521 -0.43013727712771
 1  6.77302848174817 -1.13741193829383  0.39057077867787
 1  7.85401079947995 -1.56676546684668 -1.45983545944595
 1  8.39394152555255  1.20174076887689 -0.91069385468547
 1  7.93068156625663  1.00473566176618  0.82892860126013
 1  9.70831327842784 -1.10362780648065 -0.59717687528753
 1  8.73331557585759 -2.11199001470147  1.34348270907091
 1  10.51241731113111 -1.71111499269927  1.67501939333933
 1  9.26772998459846 -0.49505072747275  2.55226653175318
 1  10.77033067086709  1.32149490939094 -0.81444861646165
 1  10.79639938653865  1.18786766236624  1.14557843814381
 1  12.32603014521452 -1.00831327082708  1.21698538183818
 1  12.47957011101110 -0.89644786538654 -0.52919591709171
 1  13.36173104310431  1.33277282228223 -0.81808071267127
 1  13.40821286608661  1.34616886818682  1.32012780218022
 1  15.01762318811881 -0.65252276827683 -0.47648583978398
 1  14.46223612351235 -0.07692729722972  2.68339111211121
 1  14.59364663816382 -1.75101277317732  1.83434093219322
 1  16.15159219231923 -1.05053863696370  2.28214469216922
 1  15.65112624752475  2.14967496089609 -0.74998497319732
 1  15.93872790539054  1.61268080358036  1.04736305950595
 1  17.40983229832983  0.09144231483148  0.70672085878588
 1  17.33014053825382 -0.04283611441144 -1.05792717011701
 1  18.10882588968897  2.37011355915591 -1.39206219451945
 1  18.26129612571257  2.79766367326733  0.23840051055105
 1  19.86591915311531  0.51381422762276  0.38949230003000
 1  19.73215153315331  1.12527757735774 -2.68168029322932
 1  20.76137042704270  0.19831803000300 -2.07287142054205
 1  19.07925065206521 -0.43617133553355 -1.65180325502550
 1  20.99888666726672  3.02120169926993  0.41360211381138
 1  21.86733447374738  2.11843842654265 -0.60557327232723
 1  20.49595624852485  3.14989247644764 -1.13122791909191
 1 -0.12586821192119 -4.45987873727373  3.05315366336634
 1 -1.99177885888589 -5.30396767046705  2.95301593819382
 1 -1.47902191549155 -3.13803228032803  3.79107326052605
 8 -11.58217659195920  3.68070286948695 -0.98796060976098
 1 -12.78836934843484  2.07542878297830 -1.28914951995199

