%nproc=4
%Mem=4GB
# td=(NStates=1) iop(3/107=0140000000,3/108=0140000000) iop(3/107=0140000000,3/108=0140000000) CAM-B3LYP/6-31G(d,p) 

TD

0 1
12 -5.60378188478848  1.18955382968297  0.14711331653165
 6 -5.02253264046405 -2.10383884718472 -0.40095696249625
 6 -3.41238002710271  1.15284556935694  2.71416678997900
 6 -6.12199099479948  4.58421168536854  0.65734594339434
 6 -7.95126089318932  1.20594144484448 -2.34770244374437
 7 -4.36077033033303 -0.25245343714371  1.05275661446145
 6 -4.26153968146815 -1.58613231483148  0.57738008760876
 6 -3.22317544204420 -2.34733803660366  1.45966032973297
 6 -2.94728789978998 -1.31144403530353  2.56678323442344
 6 -3.56805423282328 -0.03680630833083  2.11216580178018
 6 -3.56078911831183 -1.74876831823182  3.94490719011901
 6 -1.96004119731973 -2.73706111541154  0.63940924642464
 6 -0.86313795729573 -3.51894947554755  1.50143373137314
 6  0.30159526002600 -3.89666350705070  0.62435062976298
 8  0.47503756805681 -3.45847316091609 -0.45822205640564
 8  1.07096394209421 -4.88428804610461  1.16592119941994
 7 -4.90268108440844  2.57264664156416  1.48027825952595
 6 -4.01317340714071  2.41116853855386  2.47755835913591
 6 -3.76857636133613  3.73672217441744  3.17655821202120
 6 -4.55707626032603  4.60226175447545  2.59290856215622
 6 -5.35306141034103  3.90992908810881  1.55407149944995
 6 -2.86567193029303  3.80024740054005  4.35034922432243
 6 -4.59187571817182  5.97851527202720  2.89312881768177
 8 -3.92986303430343  6.47255514351435  3.88106200610061
 7 -6.75168896879688  2.70189008480848 -0.79268092439244
 6 -6.82671538633863  4.04048366556656 -0.44375606430643
 6 -7.93805899229923  4.67110383518352 -1.26384049354935
 6 -8.37764721802180  3.58367529742974 -2.03019196359636
 6 -7.77209610011001  2.38439444824482 -1.70832677917792
 6 -8.20374336523652  6.08955886528653 -1.22962247104710
 6 -9.46234059735974  3.75731612981298 -3.14403903670367
 6 -8.80950240394039  4.04218236443644 -4.57804420842084
 7 -6.34201262026203 -0.14239925762576 -1.09569466146615
 6 -7.30035956555656  0.05683961536154 -2.05230944164416
 6 -7.55436294349435 -1.36934863846385 -2.69224174677468
 6 -6.72695224402440 -2.21926149794979 -1.99189535523552
 6 -5.96305472087209 -1.37363092819282 -1.10769690009001
 6 -8.63866932473247 -1.70879100510051 -3.68458535473547
 6 -6.25038870597060 -3.52282786668667 -1.98965252035204
 8 -6.46822121762176 -4.46469416781678 -2.70659692479248
 6 -5.09997855995600 -3.50451850445044 -0.88612093189319
 6 -5.29767724512451 -4.60800624172417  0.15291896369637
 8 -5.74145991759176 -4.43425243334333  1.21467783118312
 8 -5.06076577477748 -5.85292648904890 -0.33001614621462
 6 -5.46956452065207 -6.92117397069707  0.60999282908291
 6  2.39328030123012 -5.17858897909791  0.46543049744974
 6  3.36320085508551 -4.23512367326733  0.93584148394839
 6  3.90462985318532 -3.36105897599760  0.21412504750475
 6  3.79769410831083 -3.10524546584658 -1.23927343184318
 6  5.15707213301330 -2.46464151175118  0.71672547134713
 6  6.48823369466947 -2.69318224342434 -0.09062759535954
 6  7.56034135773577 -1.76272562806281  0.50180587108711
 6  9.04490531183118 -1.89116394999500 -0.14559234173417
 6  9.52945932763276 -3.42452309270927  0.18388493079308
 6  10.02847342644264 -0.94622485988599  0.52415493099310
 6  11.32371967436744 -0.76033564046405 -0.28164693089309
 6  12.23408109670967  0.30422505000500  0.29215606320632
 6  13.56564902070207  0.42798766866687 -0.54436920012001
 6  14.51445974497450 -0.69283868646865 -0.38999315021502
 6  14.27153309290929  1.78813498509851 -0.08550780558056
 6  15.45757994839484  2.10396842504250 -0.99602459745975
 6  16.09184176857686  3.47028178097810 -0.51361197439744
 6  17.30082533163316  3.92018986058606 -1.33739767496750
 6  17.09582217191719  3.86260115181518 -2.88051027522752
 6  17.75192459855985  5.49975524082408 -0.94091355025502
 1 -2.58544426722672  1.26044031943194  3.67897836623662
 1 -6.49191717051705  5.64008938933893  0.57676666836684
 1 -8.77882829002900  1.22290259315932 -3.05495097389739
 1 -3.98271933673367 -3.24449976537654  1.82026008680868
 1 -1.78261538543854 -1.21375903750375  2.96302757885789
 1 -2.91108088718872 -2.62044520572057  4.39911345534553
 1 -3.64685547824782 -1.04880478487849  4.74807683748375
 1 -4.71357386908691 -2.22546162706271  3.72061601210121
 1 -2.28374368806881 -3.40590010731073 -0.24555517931793
 1 -1.52707053945395 -1.96463557985799  0.17214533613361
 1 -0.55993142664266 -2.95584688028803  2.43179739843984
 1 -1.35836055765577 -4.45313244444444  1.76555835383538
 1 -1.93088320212021  3.39720924532453  4.14260016971697
 1 -2.98586957705771  4.89266647264727  4.76079233693369
 1 -3.34142713771377  3.22564356185619  5.23183818981898
 1 -5.40660372427243  6.93258745314531  2.46220154155416
 1 -9.96229536303630  2.89174983208321 -3.20335358705871
 1 -10.19148994689469  4.62081592569257 -2.79436972767277
 1 -9.75230503030303  4.11505991999200 -5.37763296559656
 1 -8.45724523392339  5.13581332673267 -4.49947990299030
 1 -7.96509635863586  3.39118847764776 -4.72756268106811
 1 -8.48167575717572 -1.23141368426843 -4.70058105640564
 1 -8.52538352135213 -2.69478288338834 -3.78201083808381
 1 -9.67847792729273 -1.31636846024602 -3.27040394709471
 1 -4.13292064946495 -3.80012483908391 -1.40031331823182
 1  2.47419855285529 -6.16575451845185  0.83845980288029
 1  2.39944068746875 -4.96288326442644 -0.60386383598360
 1  3.78190031233123 -4.35311459325933  1.91071607920792
 1  2.73686867356736 -3.46731235233523 -1.39124166516652
 1  4.07233184648465 -2.03550711001100 -1.49584205470547
 1  4.66095826982698 -3.57168089728973 -1.92119104500450
 1  4.98998903980398 -1.36746317031703  0.95832771627163
 1  5.25957448474848 -2.55626725912591  1.79319419971997
 1  6.83488101480148 -3.74066725882588  0.07117500150015
 1  6.23453361376138 -2.61351896089609 -1.14211480698070
 1  7.18530746204620 -0.77554087918792  0.64146139163916
 1  7.74778688158816 -2.05468205130513  1.64731911721172
 1  8.70843495279528 -1.80782905810581 -1.11984532263226
 1  8.98452297099710 -4.29937870927093 -0.37271106350635
 1  10.56621596239624 -3.54590879297930 -0.11870198369837
 1  9.49631869326933 -3.33669476097610  1.31802224492449
 1  9.51055020562056 -0.04771904570457  0.56837220102010
 1  10.09146924442444 -0.97478401230123  1.70366990699070
 1  11.97127226852685 -1.45864589648965 -0.04645901910191
 1  11.11044713141314 -0.61412431733173 -1.12728406200620
 1  11.68845987948795  1.20051448064806  0.37865831063106
 1  12.51163598689869 -0.17354616321632  1.31098937913791
 1  13.18969577027703  0.67607203950395 -1.52113435213521
 1  14.69119845814581 -1.06161437413741  0.72185786578658
 1  14.29706527752775 -1.74145316161616 -0.95232155365537
 1  15.55472646104610 -0.49076227442744 -0.88213510601060
 1  13.41832002620262  2.49618423752375 -0.16977876557656
 1  14.48085478577858  1.79670996019602  0.95120233413341
 1  16.24515617141714  1.27913652635264 -1.05791228192819
 1  15.06686226962696  2.18482239503950 -2.10921230093009
 1  15.32248365296530  4.26642202020202 -0.67252925102510
 1  16.22046481658166  3.39824646604660  0.48984888528853
 1  18.12239592099210  3.27271876307631 -1.05398447804780
 1  16.14081480188019  4.47305383428343 -3.23791615141514
 1  18.02724864836484  4.06510602390239 -3.33800840594059
 1  16.74772497269727  2.90680175017502 -3.35098313291329
 1  18.04942098929893  5.54004522202220  0.18062972717272
 1  18.70583810611061  5.70600475267527 -1.64775168956896
 1  16.86251780268027  6.07163666676668 -1.33777783908391
 1 -5.55042034343434 -7.87676710981098 -0.09733327102710
 1 -6.47493192349235 -6.64945203180318  1.19369287678768
 1 -4.69566773537354 -6.78601017661766  1.28918337493749
 8 -7.82124971657166  6.87289379017902 -0.37502528652865
 1 -9.03063136023602  6.39764540944094 -2.00503618641864

