%nproc=4
%Mem=4GB
# td=(NStates=1) iop(3/107=0140000000,3/108=0140000000) iop(3/107=0140000000,3/108=0140000000) CAM-B3LYP/6-31G(d,p) 

TD

0 1
12 -5.66070757735774  1.25456033033303  0.07170577577758
 6 -4.96304669186919 -2.11493995729573 -0.42886975377538
 6 -3.37122591169117  1.20798108290829  2.65586095939594
 6 -6.31238003370337  4.53933719791979  0.74218442724272
 6 -7.96316208330833  1.23153400410041 -2.37941561506151
 7 -4.34990924422442 -0.20334852665267  0.98705004380438
 6 -4.25568909640964 -1.56912061366137  0.62516486608661
 6 -3.23760688518852 -2.37909121192119  1.43646801050105
 6 -2.97729090009001 -1.34954784568457  2.61020757685769
 6 -3.61704913231323  0.02712008430843  2.08656324152415
 6 -3.58446148554856 -1.82530597199720  3.90213291269127
 6 -2.04335952915291 -2.66589399869987  0.60530583608361
 6 -0.94761640514051 -3.42034961556156  1.52794638263826
 6  0.33410851135114 -3.75456929762976  0.65286348104810
 8  0.58460852515252 -3.28221553515352 -0.41725795999600
 8  1.08984583028303 -4.72684230153015  1.27355196249625
 7 -4.90092090839084  2.61579095599560  1.46060629232923
 6 -4.03421551135114  2.41397881958196  2.39650025332533
 6 -3.75856536023602  3.67448595079508  3.12149270547055
 6 -4.70004055675568  4.67047857615762  2.59824909620962
 6 -5.41866797099710  3.95194328952895  1.54424051635164
 6 -2.81825718881888  3.80988836463646  4.28331252065207
 6 -4.74305083568357  6.04911233173317  3.00033953875388
 8 -4.15035508350835  6.52522041004100  3.95703960386039
 7 -6.98912271217122  2.66626652245225 -0.69211086738674
 6 -7.13027574237424  3.87029664686469 -0.31999368806881
 6 -8.01124631103110  4.62082880768077 -1.11763587308731
 6 -8.55325477877788  3.55687261716172 -2.02316126052605
 6 -7.84078296879688  2.46425243404340 -1.65202114861486
 6 -8.42587557845785  5.98385829522952 -1.16292580138014
 6 -9.54170853415342  3.84270466866687 -3.17085171797180
 6 -8.86069752345234  4.01760990719072 -4.55124152815282
 7 -6.47450586958696 -0.18846386408641 -1.08540363236324
 6 -7.46223575317532 -0.11111718031803 -2.04776898759876
 6 -7.63476098329833 -1.35720742434243 -2.65392791539154
 6 -6.77608715751575 -2.22572214401440 -2.02654882058206
 6 -5.98975739113911 -1.42096566166617 -1.05435156555656
 6 -8.47100255805580 -1.63180330633063 -3.79882677887789
 6 -6.29777344444444 -3.55419100300030 -2.07533108820882
 8 -6.61190558605861 -4.57898559695970 -2.68135440054005
 6 -5.09178774087409 -3.53413146574657 -1.00445276507651
 6 -5.29292677007701 -4.59198463956396  0.04633830563056
 8 -5.92711848344834 -4.46469547764776  1.05755211861186
 8 -4.91413111131113 -5.88007920432043 -0.43276642124212
 6 -5.18870643484348 -7.02273412671267  0.56969879967997
 6  2.37641861506151 -4.92050317051705  0.63110706510651
 6  3.42765730073007 -3.96993715461546  1.14001190099010
 6  4.08333772397240 -3.16421929202920  0.25430906590659
 6  3.74749908880888 -3.18325326662666 -1.17894739923992
 6  5.18774520032003 -2.31142619021902  0.73463726252625
 6  6.52819769106911 -2.61977490269027  0.03904537193719
 6  7.75465078867887 -1.82466182168217  0.67160285078508
 6  9.14481530283028 -2.02355718931893 -0.07632541504150
 6  9.69692607430743 -3.46530717111711  0.08147468976898
 6  10.08606918601860 -0.85922616001600  0.42332484798480
 6  11.42794009640964 -0.97211681858186 -0.34998376457646
 6  12.31322901150115  0.12777740524052  0.08130497809781
 6  13.68375083088309  0.33250812071207 -0.51911667486749
 6  14.66794509350935 -0.85186458905891 -0.15905005590559
 6  14.24764070367037  1.67988416001600 -0.32166142094209
 6  15.58969315971597  2.11676970517052 -1.05608060306031
 6  16.03385596999700  3.50933568636864 -0.70351096429643
 6  17.47873312241224  3.82759060066007 -1.40092402760276
 6  17.26166875657566  3.99529442114211 -2.86648887308731
 6  18.03613301940194  5.13942920822082 -0.77186664556456
 1 -2.49913563636364  1.24139841524152  3.43733420182018
 1 -6.62935091389139  5.51172655305531  1.14725371707171
 1 -8.69828023522352  1.26152645554555 -3.12933841264126
 1 -3.76973803860386 -3.38464377977798  1.82050011081108
 1 -1.82995011891189 -1.24707236883688  2.87060833693369
 1 -3.16258603770377 -2.84665782698270  4.34926847084709
 1 -3.48674946764677 -1.11273117751775  4.73478550835083
 1 -4.76883939563956 -1.94796387728773  3.61461541204120
 1 -2.18551386508651 -3.38401791909191 -0.16597722152215
 1 -1.43178101050105 -1.83034215051505  0.21447956955696
 1 -0.41403683718372 -2.78147944354435  2.31711593029303
 1 -1.04327904950495 -4.38844597579758  2.04396619461946
 1 -1.56002611641164  3.64042356675668  4.15323123282328
 1 -3.11882287238724  4.93606081208121  4.73401965966597
 1 -3.06461945694569  3.12510350785079  5.06630163616362
 1 -5.30316338023802  6.75498969336934  2.58050337173717
 1 -10.22150128362836  2.94963562066207 -3.36538979067907
 1 -10.15840663856386  4.69920376447645 -2.93029332003200
 1 -9.57123692349235  4.04932334633463 -5.48734393669367
 1 -8.52823233263326  5.21452119751975 -4.41376133113311
 1 -7.97118696769677  3.52347170597060 -4.73194311911191
 1 -8.05713330293029 -1.23577412031203 -4.79495049334933
 1 -8.24909589258926 -2.64446785188519 -3.90938357535754
 1 -9.60609068856886 -1.50583740714071 -3.79002590929093
 1 -4.16925428282828 -3.86873169976998 -1.60534382128213
 1  2.87263839683968 -6.12370031303130  1.10570652755276
 1  2.31959270267027 -4.95040201630163 -0.33820727032703
 1  3.79973209550955 -4.10478976077608  2.14701970957096
 1  2.56057104380438 -3.25233085418542 -1.18894143514351
 1  3.90434504780478 -2.17590114941494 -1.56398886938694
 1  4.41671384538454 -3.80333406260626 -1.70097902380238
 1  4.95256529742974 -1.27132355635564  0.45842772627263
 1  5.36100462776278 -2.33902553495350  1.79247412771277
 1  6.90223775047505 -3.80524371647165  0.03876176017602
 1  6.73934409480948 -2.13668127712771 -0.99206980248025
 1  7.51024995629563 -0.71826515161516  0.61560880638064
 1  7.72569467236724 -2.17814439753975  1.69905429072907
 1  8.92764687398740 -1.95530380558056 -1.06087942604260
 1  8.85790030873087 -4.26148491989199 -0.32241603400340
 1  10.57554689548955 -3.65775997809781 -0.62160227372737
 1  9.97680674207421 -3.54626571807181  1.23440388308831
 1  9.50691984258426  0.16296202240224  0.43006837063706
 1  10.32066216371637 -0.88622515641564  1.47194673467347
 1  12.22462760406041 -1.84496452835284 -0.24146852005201
 1  11.19417550425043 -0.70683358825883 -1.33710504410441
 1  11.92630366386639  1.19989441864186  0.31098154295430
 1  12.65943076637664 -0.16308511711171  1.07550583078308
 1  13.75942274297430  0.21829626192619 -1.68121035973597
 1  15.08844818311831 -0.63579179187919  1.10374605460546
 1  14.19799537053705 -1.70212922922292 -0.12212853435343
 1  15.56575756415642 -1.00808400660066 -0.91889878237824
 1  13.59712790699070  2.34337895699570 -0.69776156385639
 1  14.45272197249725  2.19453974317432  0.86981419531953
 1  16.39408106390639  1.31475008770877 -0.88779527022702
 1  15.31755733913391  2.14482839563956 -2.11385276497650
 1  15.21610301490149  4.07001237923792 -1.06144814291429
 1  16.22102487258726  3.65839248064806  0.42717261766177
 1  18.19932361376138  3.05186667786779 -1.19175825542554
 1  16.81143186358636  5.00327685658566 -2.98286064586459
 1  18.41002692619262  3.94369388268827 -3.37550215531553
 1  16.62662286248625  3.24151522152215 -3.42024005860586
 1  18.20735678287829  5.02837405490549  0.30277194139414
 1  19.14507202950295  5.45406955915592 -1.18780569496950
 1  17.41146269716972  6.00197970107011 -1.11074513581358
 1 -4.71905720712071 -7.88170760386039  0.06778324062406
 1 -6.39587401770177 -7.11726881348135  0.65961946944695
 1 -4.81076924552455 -6.54377595319532  1.57699215581558
 8 -7.88979657125713  6.82700920172017 -0.35960374437444
 1 -9.16822511961196  6.48938458335834 -1.94463014581458

