%nproc=4
%Mem=2GB
# td=(NStates=1) iop(3/107=0140000000,3/108=0140000000) iop(3/107=0140000000,3/108=0140000000) CAM-B3LYP/6-31G(d,p) 

TD

0 1
12 -6.88021059315932  0.66809595369537  0.16611423092309
 6 -4.46738384488449 -1.90291871367137  0.42833311031103
 6 -4.61716353175318  2.91897353045305  0.80296317791779
 6 -9.27904060876088  3.02696672077208 -0.34768427012701
 6 -9.38093619121912 -1.74848787838784 -0.60897095579558
 7 -4.90343541544154  0.58097749544954  0.54330336243624
 6 -4.01267853345334 -0.62285199199920  0.52171272667267
 6 -2.64866828542854 -0.48150991019102  0.98917097939794
 6 -2.72841280708071  1.17611776057606  1.22473463596360
 6 -4.01753801670167  1.50438052325232  0.82314708940894
 6 -2.65922220792079  1.47360915681568  2.76969153195320
 6 -1.62780152855286 -0.74923748714872 -0.07532620632063
 6 -0.14897301560156 -0.79208091469147  0.36663573707371
 6  0.86639771897190 -0.62505974287429 -0.76450462426243
 8  0.79699976807681  0.02372976047605 -1.90959194939494
 8  1.90410069666967 -1.47813811241124 -0.46175109760976
 7 -7.01592333453345  2.59954032403240  0.42252600050005
 6 -5.70391095199520  3.33236187938794  0.55062135833583
 6 -6.19935415061506  4.79963964876488  0.52239710831083
 6 -7.56773748714872  4.88207429792979  0.28813539683968
 6 -8.07993969786979  3.47173598199820  0.12731756315632
 6 -5.33669859015902  5.83496092659266  1.05104277227723
 6 -8.38228979027903  6.10403732383238  0.18980850455045
 8 -7.95626954315432  7.23149476607661  0.37814567136714
 7 -8.93047660116012  0.58865972517252 -0.23697634673467
 6 -9.74733840624062  1.69783451875188 -0.41229228152815
 6 -11.12650928122812  1.23432330343034 -0.72521830303030
 6 -11.11558591609161  0.02272317671767 -0.81655251075108
 6 -9.71226288958896 -0.52678084128413 -0.55299737643764
 6 -12.17442421772177  2.39500569366937 -1.04026867766777
 6 -12.31445456595659 -0.72828639093909 -1.18928706240624
 6 -12.34057091919192 -1.14015618081808 -2.67037983268327
 7 -7.13537001990199 -1.39464202550255 -0.02881552605261
 6 -8.04120678227823 -2.31821181788179 -0.39328252625263
 6 -7.60240782588259 -3.76090341274127 -0.29908091819182
 6 -6.23576919811981 -3.70993015391539  0.09810154955496
 6 -6.02936922562256 -2.15336415091509  0.11732791709171
 6 -8.32766128962896 -4.84710208800880 -0.73714653055306
 6 -4.93037924242424 -4.41226702480248  0.12283030873087
 8 -4.63446519521952 -5.49806034433443 -0.08140763416342
 6 -3.89730345574557 -3.29851041024102  0.41809645684568
 6 -3.30575408630863 -3.80443661916192  1.67625733873387
 8 -3.63648888898890 -4.07706444124412  2.76244491429143
 8 -1.97996967186719 -3.73561986728673  1.47823776297630
 6 -1.17132565466547 -3.96875196529653  2.71968639383938
 6  2.90854274707471 -1.74568974587459 -1.46584782888289
 6  4.11911567896790 -0.85400240134013 -1.12137767006701
 6  5.34292504790479 -0.69379625102510 -1.78885508710871
 6  5.56331031483148 -1.41911504620462 -3.09063604580458
 6  6.58432225682568 -0.08426607950795 -1.35363192169217
 6  7.73376207020702 -0.75329111121112 -0.85594233153315
 6  8.81620418071807  0.01237687228723 -0.19638811931193
 6  10.03880697009701 -0.56276319661966  0.44487618191819
 6  9.89553707000700 -1.22708152285229  1.79900426922692
 6  11.20237256725673  0.50056491069107  0.38218305670567
 6  12.44261953245324 -0.16345503830383  0.52795110631063
 6  13.74436597919792  0.88846612131213  0.26783968236824
 6  15.14667100230023  0.21288456655666  0.47897255935594
 6  15.14360934903490 -0.40701298179818  1.94101402540254
 6  16.29095872427243  1.16373127512751  0.05477868316832
 6  17.63798327642764  0.56676190059006 -0.21805867976798
 6  18.65804535193519  1.52647983918392 -0.57024717151715
 6  20.11249345044504  0.77362585738574 -0.51923200690069
 6  20.07180698199820  0.03208863916392 -1.73621941314131
 6  21.34032120102010  1.79887130513051 -0.45890098599860
 1 -3.82672331063106  3.42030328132813  0.84515391709171
 1 -10.09348333083308  3.88112719781978 -0.77951158505851
 1 -10.12821531313131 -2.56084648394839 -0.80880370627063
 1 -2.65661817861786 -0.91983960176018  1.76782683098310
 1 -1.82533187178718  1.71553202940294  0.79350580398040
 1 -1.45575695939594  1.54068238263826  3.03786449754976
 1 -2.98948712261226  2.47454603100310  3.39046516431643
 1 -3.31214354685469  0.59489737503750  3.35558142724273
 1 -1.89107812811281 -1.73043431643164 -0.46989477627763
 1 -1.62277744674467 -0.10168164106411 -0.75539533033303
 1  0.02173017131713  0.32623118981898  0.79651551675168
 1  0.11303758395840 -1.69178551235124  0.97693792589259
 1 -4.56273080348035  5.74384221212121  0.47412236993699
 1 -6.07682796339634  6.67549022492249  1.08795570167017
 1 -4.73867489568957  5.79876883788379  2.17266503880388
 1 -9.59054206830683  5.77326243544354 -0.18778515431543
 1 -12.05401495509551 -1.93553442094209 -0.61210563776378
 1 -13.17937415241524 -0.46989058925893 -0.68019565596560
 1 -13.26618444154415 -1.83423553895390 -2.92639975707571
 1 -12.23613057685769 -0.08316089458946 -3.25412758225823
 1 -11.27302412681268 -1.59645296229623 -2.96378298569857
 1 -8.36110529382938 -5.14188074367437 -1.79172140014001
 1 -7.69987520212021 -5.65889590219022 -0.28164781668167
 1 -9.06974425442544 -5.01908386958696 -0.02299769026903
 1 -3.32499208060806 -3.27752147704770 -0.64004231103110
 1  2.93187480288029 -3.01350862466247 -1.43978969606961
 1  2.31632592139214 -1.75308122312231 -2.27563779907991
 1  4.03075040274028 -0.59619236763676 -0.21604800320032
 1  4.66303936093609 -0.59101257375738 -3.51137125212521
 1  6.87011058945895 -1.45274394979498 -3.52638386228623
 1  5.25015884328433 -2.46829944424442 -2.98921310511051
 1  6.89908032993299  0.72083742114211 -2.02968558575858
 1  6.26142125152515  0.54224977277728 -0.60493475687569
 1  7.58402958185819 -1.67784598169817 -0.14279255765577
 1  8.16688208660866 -1.54011280158016 -1.73852332823282
 1  8.95584771617162  0.68840943574357 -1.01914469976998
 1  8.33736223432343  0.82075726392639  0.49603531193119
 1  10.08583103020302 -1.32272971667167 -0.40657781538154
 1  8.88957120142014 -1.73060187588759  1.86068442924293
 1  10.67951402080208 -1.93512739393939  1.95214710611061
 1  9.93304651625163 -0.23052427482748  2.69096040114011
 1  11.40136377417742  1.22971573147315 -0.53666083768377
 1  11.01983172977298  1.27735661126113  1.06895077537754
 1  12.60660820302030 -0.42089452895290  1.49380306360636
 1  12.48432058605861 -1.07156537713771 -0.07730072757276
 1  13.57390226022602  1.16177572257226 -0.79390829542954
 1  13.55903794859486  1.70770502180218  1.12292808220822
 1  15.01265269106911 -0.63398091409141 -0.13179137033703
 1  15.20037993789379  0.26519691519152  2.63660643364336
 1  14.50807808130813 -1.33899157105711  2.19995749384939
 1  16.35266229932993 -0.78581216431643  1.94005048274827
 1  15.79675080998100  1.65847584098410 -1.05856583128313
 1  16.53328736133614  2.03740327582758  0.80249857305731
 1  17.73585490059006 -0.15398222762276  0.73765395209521
 1  17.65477300150015 -0.21802363316332 -1.10438181558156
 1  18.53525853295330  2.31574812261226 -1.13254624292429
 1  18.99934993109311  2.01629553645365  0.18798546904690
 1  20.34635719691969  0.18519136533653  0.22964631543154
 1  20.55318363636363  0.76524157375738 -2.69746187138714
 1  21.04718900890089 -0.60580238203820 -1.93304743814381
 1  18.95049777677768 -0.43134085248525 -2.12573064776478
 1  20.86610338893889  2.62706228532853  0.34941569516952
 1  22.37540528082808  1.08828541124112 -0.22485520052005
 1  21.44688134103410  2.36991447864786 -1.63965876217622
 1 -0.38001362646265 -4.44769751915192  2.07145549354936
 1 -1.52970265126513 -4.44029130283028  3.53667430403040
 1 -0.70673468676868 -2.95608408550855  2.82510666386639
 8 -11.83432180648065  3.49544434363436 -0.66919873357336
 1 -13.03138364986499  2.17999924002400 -1.47932853785378

