%nproc=4
%Mem=2GB
# td=(NStates=1) iop(3/107=0140000000,3/108=0140000000) iop(3/107=0140000000,3/108=0140000000) CAM-B3LYP/6-31G(d,p) 

TD

0 1
12 -6.77824039613961  0.63320246434643  0.18880650015002
 6 -4.52728983548355 -2.03673209500950  0.47982825982598
 6 -4.23678549394940  2.80401203430343  1.05732861446145
 6 -8.87771047574758  3.09933395749575 -0.36414591629163
 6 -9.34800289788979 -1.79308233783378 -0.67123718241824
 7 -4.72747781968197  0.32667206490649  0.76784581668167
 6 -4.08160542614261 -0.83154286108611  0.78364892029203
 6 -2.64220763936394 -0.73549530873087  1.03958602090209
 6 -2.50899086488649  0.82831298009801  1.41739390189019
 6 -3.84572083498350  1.40850093529353  1.02399717441744
 6 -2.19709599529953  1.19530132603260  2.77573213601360
 6 -1.56667541594159 -1.05601816521652 -0.03983265696570
 6 -0.08078619691969 -1.19436114271427  0.55112418591859
 6  0.93960503970397 -1.44189142604260 -0.52013018681868
 8  0.95814588268827 -1.32790540304030 -1.76112710291029
 8  1.98290857745775 -2.11597189578958  0.07641271877188
 7 -6.51482322452245  2.62548291829183  0.37740148804880
 6 -5.37454801570157  3.37818646184618  0.67390368656866
 6 -5.75850006520652  4.79495918071807  0.78736360496050
 6 -7.09136985038504  4.91422751325133  0.38790537383738
 6 -7.66054775867587  3.61739054745475  0.12055688708871
 6 -4.75394031433143  5.83540097059706  1.12033970197020
 6 -7.87919948124812  6.21996891699170  0.41246076977698
 8 -7.40019393559356  7.25731734833483  0.45213307010701
 7 -8.80768432193219  0.79379023822382 -0.52742539163916
 6 -9.49466313871387  2.04851958725873 -0.42133318561856
 6 -10.81839847014701  1.70591046214621 -1.03342912411241
 6 -10.93802816031603  0.27039794419442 -1.12538339383938
 6 -9.52411407470747 -0.26235439863986 -0.86795887258726
 6 -11.88831560686068  2.62648884198420 -1.30275492629263
 6 -12.14814793529353 -0.43697726002600 -1.36691482518252
 6 -12.26338320042004 -0.72439460466047 -2.85277807250725
 7 -6.85911239413941 -1.34360692199220 -0.04741738623862
 6 -8.00623328492849 -2.18695869256926 -0.34736793479348
 6 -7.61544913001300 -3.57531485388539 -0.57381839193919
 6 -6.24855047624763 -3.53804296519652 -0.17918617921792
 6 -5.92102839153915 -2.25363417791779  0.05146133043304
 6 -8.48142666616662 -4.56793417121712 -0.92145496139614
 6 -5.01082728722872 -4.42497829592959 -0.04016599089909
 8 -5.08756050475048 -5.64467500580058 -0.04785427882788
 6 -3.96908063346335 -3.50387094629463  0.47638228542854
 6 -3.35913942484248 -3.74167034253425  1.84854456745675
 8 -4.01225646574657 -3.90332706750675  2.95219388918892
 8 -1.93547522242224 -3.75017132243224  1.80581052025203
 6 -1.16782530463046 -4.14695978607861  2.93312773797380
 6  3.10758265106511 -2.67776295319532 -0.82026327042704
 6  4.17221098849885 -1.47268426952695 -0.80380591289129
 6  4.93889464486449 -1.04642151355136 -1.83718992059206
 6  5.11556554035404 -1.74419755445545 -3.18293527572757
 6  6.14156798139814 -0.00208786168617 -1.44183074157416
 6  7.37264595859586 -0.94056983908391 -0.84644138143814
 6  8.53194575487549  0.25177081168117 -0.50972945344534
 6  9.73926701610161 -0.35715263556356 -0.16312461816182
 6  9.54078159445945 -1.07467628232823  1.39124349314931
 6  10.72238456845685  0.55270012421242 -0.17775293689369
 6  12.22750802130213 -0.08550724352435  0.13013132433243
 6  13.39029057165717  1.06807408210821  0.11417431583158
 6  14.73886022122212  0.34375765386539  0.43887854995500
 6  14.95088007610761 -0.32898517901790  1.88153807780778
 6  15.85816544494450  1.43563846584658  0.29780298559856
 6  17.35720519861986  0.89666489088909  0.03530665676568
 6  18.26935648304831  1.88394558575858 -0.19459960676068
 6  19.73191539263926  1.32688118291829 -0.55565564926493
 6  19.70608040934093  0.62012744304430 -1.90638642984298
 6  20.80634780368037  2.53060447844784 -0.63177827372737
 1 -3.27432807110711  3.37647889888989  1.50691009270927
 1 -9.54464844734473  3.79358844394439 -0.49042267616762
 1 -10.11782427402740 -2.33691409070907 -0.91521434733473
 1 -1.98261077787779 -1.11367898569857  1.87762781108111
 1 -1.94288362696270  1.48114859105911  0.69963641704170
 1 -1.12861424512451  0.70919923432343  2.83564427552755
 1 -1.98065623952395  2.02649122552255  3.27408352615261
 1 -2.91385371787179  1.09427731303130  3.53569943904391
 1 -1.71044006430643 -2.39153042604260 -0.17004479127913
 1 -1.80640580958096 -0.43429490239024 -0.93697348814882
 1 -0.07447944964496 -0.00098153145315  1.09645551075107
 1 -0.00075379517952 -1.92272860666067  1.38107833993399
 1 -3.87930246064606  5.73080090799080  0.35507046474647
 1 -5.08636891749175  6.75610828672867  0.88444535063506
 1 -4.50685171337134  5.72296125712571  1.94982275457546
 1 -8.95863887798780  6.04348945814582  0.31519514371437
 1 -11.87637719131913 -1.55415628312831 -0.82889731693169
 1 -13.34870108510851 -0.11207480768077 -0.93268090449045
 1 -12.87942576567657 -1.15778789418942 -2.92638975607561
 1 -12.16675363916392 -0.06242882138214 -3.43303547304731
 1 -11.46314313871387 -1.04589790679068 -3.28755536293629
 1 -9.05404458775878 -4.28157471307131 -1.64492672067207
 1 -7.79741495609561 -5.53332334493449 -0.73858351025103
 1 -9.26793407340734 -4.89343130433043 -0.21128651915192
 1 -2.98843842524252 -3.72315604050405 -0.09801810861086
 1  3.58334995039504 -3.47329460326033 -0.31786750385038
 1  2.78155244404440 -2.78003391839184 -1.95627586288629
 1  3.96239356705671 -0.66440918931893  0.09182278387839
 1  4.18028108510851 -1.90515398789879 -3.58172828782878
 1  5.67444102250225 -1.17822649804981 -3.94462568646865
 1  5.68515234263426 -2.84376699099910 -2.72256644044404
 1  6.41060148204821  0.40212554995500 -2.69109172637264
 1  5.75274038343834  0.83209875767577 -0.59197346074607
 1  7.14777595649565 -1.14373257035703  0.59401112271227
 1  7.86892229062906 -1.96295508580858 -1.46645612151215
 1  8.42350448184818  0.50984157895790 -1.57535032033203
 1  8.24940343844384  1.21534672287229  0.15150085848585
 1  10.00440288738874 -1.32488993269327 -0.68842600020002
 1  8.19888213251325 -1.62376119181918  2.04190255105510
 1  10.09780584998500 -1.63898777997800  1.70852274367437
 1  9.43528674027403 -0.13317453985398  1.95548685378538
 1  10.91443508130813  1.27358011791179 -1.33545071667167
 1  10.49706945354535  1.59308818441844  0.51684556485649
 1  12.12632017421742 -0.81824426392639  1.01470515381538
 1  12.73027518151815 -0.59971819241924 -0.92295529302930
 1  13.01324619461946  1.58918846384638 -0.74364326892689
 1  13.07515956075608  1.87531178247825  1.41284707410741
 1  14.97378880468047 -0.52608012401240 -0.35151334253425
 1  14.68192809270927  0.37995839133913  2.74412718571857
 1  14.23431070457046 -1.04807247914791  2.00483798189819
 1  15.84111114421442 -0.90723430653065  2.00191666936694
 1  15.64811594649465  2.48274826822682 -0.18907888258826
 1  15.92949698229823  1.93250278577858  1.55811413461346
 1  17.71045236033603  0.17600077067707  0.89475966266627
 1  17.18690621482148  0.33409157835784 -0.88854023142314
 1  18.06714172127213  2.64249079687969 -0.96419940824082
 1  18.35452544864486  2.65089899679968  0.59457612811281
 1  20.15511807300730  0.86991983818382  0.74956830763076
 1  19.26146446444644  1.23859890949095 -2.46217834303430
 1  20.64778906890689  0.34547274547455 -2.04832896629663
 1  18.96153888088809 -0.06029374777478 -1.72926100080008
 1  20.69178595719572  2.90898047714772  0.12723347694770
 1  21.75632337263727  2.33993057575758 -0.30744345934593
 1  20.57892454535454  3.06684417161716 -1.48979377567757
 1 -0.02815844094409 -3.72694544394439  2.31281962996300
 1 -1.61958163916392 -5.40417769146915  2.71558219481948
 1 -2.05363937723772 -3.53920239733973  4.03870802400240
 8 -11.74623299759976  3.85670046924692 -1.17137895159516
 1 -12.86572708420842  2.22274351445144 -1.64392499749975

