%nproc=4
%Mem=4GB
# td=(NStates=1) iop(3/107=0140000000,3/108=0140000000) iop(3/107=0140000000,3/108=0140000000) CAM-B3LYP/6-31G(d,p) 

TD

0 1
12 -5.62882438903890  1.17473234753475  0.17982658785879
 6 -5.05661604880488 -2.10527899119912 -0.39633650045004
 6 -3.32961175027503  1.18094837963796  2.70021539483948
 6 -6.18520731643164  4.47730099429943  0.64588479727973
 6 -8.03349911701170  1.16246709740974 -2.36105377887789
 7 -4.37878213151315 -0.35812400420042  0.94213555235524
 6 -4.28474200170017 -1.64092779437944  0.66734908450845
 6 -3.23037616211621 -2.25680898369837  1.55114947864786
 6 -2.90383355435544 -1.26580947184718  2.57461401750175
 6 -3.55598302570257 -0.01567419511951  2.04890947614761
 6 -3.42359539893989 -1.80634407580758  3.93150584998500
 6 -2.02221741494149 -2.58384579387939  0.63511881738174
 6 -0.99993163666367 -3.61963954455446  1.38336192419242
 6  0.20284538503850 -3.81078491919192  0.45829402410241
 8  0.46599666396640 -3.43777109070907 -0.63206944114411
 8  1.07303414911491 -4.57429704700470  1.14807941524152
 7 -4.92507332363236  2.54873425032503  1.42842307400740
 6 -3.95528761856186  2.38629605130513  2.38035863916392
 6 -3.71999150285029  3.56014451665167  3.08753931013101
 6 -4.62957351005101  4.52739426772677  2.62189146044605
 6 -5.34193029722972  3.92129022422242  1.61500759305931
 6 -2.70718608170817  3.90316769256926  4.06980116951695
 6 -4.56922345294529  5.92934035453545  2.85602510731073
 8 -3.93647369536954  6.62408029602960  3.64179807970797
 7 -6.91695549544955  2.65400529632963 -0.67409906620662
 6 -6.93768648344835  3.91932154935494 -0.30756244494449
 6 -7.87088227462746  4.61292801760176 -1.11360547004700
 6 -8.53642309560956  3.58370530043004 -1.95777472187219
 6 -7.81208009850985  2.43448945774577 -1.64601054755476
 6 -8.21254424532453  5.99646955635564 -1.25067457625763
 6 -9.56474083738374  3.82554295249525 -2.98428306110611
 6 -8.96683813751375  4.07838598479848 -4.36263266726673
 7 -6.42827124612461 -0.11845686338634 -1.00422551455146
 6 -7.50051958155816 -0.05665173377338 -2.04565877657766
 6 -7.68444595179518 -1.34323602720272 -2.71564408700870
 6 -6.69310885968597 -2.13393296509651 -2.02680884658466
 6 -5.99677809320932 -1.38559212431243 -1.07655378577858
 6 -8.59433489128913 -1.68578870487049 -3.77632452865287
 6 -6.22468613571357 -3.51598718261826 -2.02918647374737
 8 -6.55616001150115 -4.53714141254125 -2.61427769286929
 6 -5.10688925102510 -3.57566561916192 -0.90820314011401
 6 -5.48310578797880 -4.68669411051105  0.09200287208721
 8 -5.93864963656366 -4.56051505960596  1.15757212061206
 8 -5.10082978117812 -5.90632182858286 -0.38387153175318
 6 -5.33949151335134 -6.91619347264727  0.61890372017202
 6  2.32822379557956 -4.96545766596660  0.60322427682768
 6  3.40730526552655 -4.08394855575558  0.99927782758276
 6  4.16924631483148 -3.24448731883188  0.26386002100210
 6  3.90965530443044 -3.11129607090709 -1.22911241574157
 6  5.22676910271027 -2.44116916451645  0.78778257705771
 6  6.56009088038804 -2.73818674387439  0.01059252665267
 6  7.67465278887889 -1.96027538303830  0.69788547904790
 6  9.02314313561356 -1.96212104570457  0.04542676017602
 6  9.75461184288429 -3.25380602100210  0.05822236453645
 6  9.91847242634263 -0.84079431683168  0.41169368486849
 6  11.32728003040304 -0.76941654855486 -0.11056982318232
 6  12.31902959155916  0.34963959145915  0.25032187978798
 6  13.54503695949595  0.48359322922292 -0.60142490569057
 6  14.47472577157716 -0.72423182578258 -0.47793194409441
 6  14.29487542714271  1.76306247784778 -0.13780303510351
 6  15.51959615001500  2.12496052425243 -1.10725572057206
 6  16.08132071647165  3.42915766856686 -0.56384699789979
 6  17.44144939403941  3.79933777537754 -1.29055299049905
 6  17.32802539223922  4.09212410411041 -2.80039226342634
 6  18.03399280538054  5.17205247054705 -0.76375583448345
 1 -2.55488121092109  1.25995027042704  3.48717918631863
 1 -6.42684066286629  5.51315669606961  0.72609160086009
 1 -8.63172357955796  1.22301260416042 -3.24620009880988
 1 -3.71886295109511 -3.10937625302530  1.89783784458446
 1 -1.94109123302330 -1.23512117371737  2.66004728082808
 1 -3.01718149724973 -2.71711487268727  4.44434797879788
 1 -3.57718851155115 -0.95379528392839  4.69911194099410
 1 -4.42565507720772 -2.11594067496750  3.78258220872087
 1 -2.20442575627563 -2.98904842214221 -0.36194681848185
 1 -1.37893572597260 -1.70666978327833  0.53817193879388
 1 -0.92520795429543 -3.30565186078608  2.36742096079608
 1 -1.45086980858086 -4.68582571377138  1.30034183218322
 1 -1.73019313311331  3.79939946434644  3.91595750545054
 1 -2.91870286038604  4.99542674867487  4.48436469416942
 1 -2.79634262926293  3.22721371887189  4.99363436943694
 1 -5.26080914481448  6.31199539393939  2.34478980038004
 1 -9.96271540504050  2.97952860996100 -3.10967421912191
 1 -10.00719151705171  4.71772561666167 -2.85797608830883
 1 -9.69894969476948  4.24756317031703 -5.11043624592459
 1 -8.47356686608661  5.11493123852385 -4.52045200020002
 1 -8.39715956495650  3.28732809160916 -4.73016294109411
 1 -8.84294188378838 -0.98568911181118 -4.50571156945695
 1 -8.28061904490449 -2.67853125822582 -4.25699833683368
 1 -9.78123820332033 -1.71858868226823 -3.23773067976798
 1 -4.03774113151315 -3.95715054165417 -1.54071735863586
 1  2.16630776377638 -5.98474641764176  1.15869182608261
 1  2.30458120152015 -4.84693166926693 -0.46327977757776
 1  3.73529565186519 -4.17837711951195  1.99729473707371
 1  2.86681166786679 -3.41665728682868 -1.51064360536054
 1  3.75231984528453 -1.96152971227123 -1.65013748424842
 1  4.70370254425443 -3.60729445864586 -1.86614554045405
 1  4.92073211411141 -1.24528095209521  0.71974385788579
 1  5.18722725002500 -2.77521915431543  1.87892277257726
 1  6.76861438813881 -3.84694788688869  0.09469735373537
 1  6.51286144654465 -2.62072968196820 -1.01612220772077
 1  7.33727265856586 -0.93814713981398  0.42310955645565
 1  7.91029313221322 -2.03674025712571  1.78135252055206
 1  8.93984809410941 -1.87217549274928 -0.94384772287229
 1  8.96311082978298 -4.05799457085709 -0.06122991539154
 1  10.58786812761276 -3.49948415051505 -0.72110222372237
 1  10.14912397379738 -3.60689178067807  1.13758420112011
 1  9.41841099169917  0.20005573177318  0.28494385818582
 1  10.09651974947495 -0.76425295919592  1.54016355635564
 1  11.86354149544955 -1.77187721962196  0.17502312911291
 1  11.35643172987299 -0.92577548244824 -1.24172550615061
 1  11.93977501100110  1.40666509570957  0.07793823862386
 1  12.49425424872487  0.24881607300730  1.29839812001200
 1  13.18679548024802  0.70459489178918 -1.70255249394940
 1  15.02633197149715 -0.92662087478748  0.47744342434243
 1  13.83723929492949 -1.75316433273327 -0.52035835733573
 1  15.32414340274027 -0.61540473867387 -1.13345023752375
 1  13.59034722892289  2.54525914501450 -0.46024781248125
 1  14.66728342864286  1.82012230143014  0.90693790769077
 1  16.09700135593559  1.32000061276128 -0.88401489218922
 1  15.15142072547255  2.17300121292129 -2.08050943064306
 1  15.40169157375738  4.20064544254425 -0.80006200430043
 1  16.22082485258526  3.53472011341134  0.49450935133513
 1  18.08635231663166  3.10213170437044 -0.93125220482048
 1  16.58280900130013  4.87765429432943 -2.74171653145315
 1  18.28932485598560  4.26286579987999 -3.18827343244324
 1  16.52067226742674  3.20160123012301 -3.24739277387739
 1  17.93123917111711  4.97973919141914  0.43189485368537
 1  18.97888541084108  5.31414556675668 -1.25068198259826
 1  17.44335588648865  6.05542504560456 -0.96795085638564
 1 -5.05348064946495 -7.92475190829083  0.16598306060606
 1 -6.38650308060806 -7.03953103970397  0.95279878737874
 1 -4.77241541014101 -6.80539211481148  1.53008746534654
 8 -7.77811540314031  6.84670117091709 -0.43915169916992
 1 -8.94815311241124  6.37015266016602 -2.03919960276028

