%nproc=4
%Mem=4GB
# td=(NStates=1) iop(3/107=0140000000,3/108=0140000000) iop(3/107=0140000000,3/108=0140000000) CAM-B3LYP/6-31G(d,p) 

TD

0 1
12 -5.63444495109511  1.25522039633963  0.26513511871187
 6 -5.01384177137714 -2.14156261956196 -0.35470233703370
 6 -3.43064185328533  1.18474875967597  2.78423379667967
 6 -6.06023481918192  4.56003926812681  0.66413662246225
 6 -7.93082884998500  1.13919477017702 -2.38624629812981
 7 -4.33290754405441 -0.24241243304330  1.07777911671167
 6 -4.26113964146415 -1.60074377597760  0.69672202180218
 6 -3.15140826532653 -2.29180248304830  1.48089245294529
 6 -2.89521269226923 -1.29285217611761  2.64234079017902
 6 -3.56417384478448 -0.02045467316732  2.14314890009001
 6 -3.44865790519052 -1.81865530693069  3.99234193359336
 6 -1.94276947014701 -2.57700510981098  0.63871917741774
 6 -0.87236888038804 -3.53192077267727  1.41305489348935
 6  0.28616371687169 -3.97731157185719  0.56265446014601
 8  0.46614667896790 -3.55389270287029 -0.66900313451345
 8  1.08154500020002 -4.81833145044504  1.16091069836984
 7 -4.95791660796080  2.56641601850185  1.53414364606461
 6 -3.99998208800880  2.46394381608161  2.43261386468647
 6 -3.71390089378938  3.63937243944394  3.21260181638164
 6 -4.45857641034103  4.56651818011801  2.60090936223622
 6 -5.22112821702170  3.86097419261926  1.52059815211521
 6 -2.67648301140114  3.75214259005901  4.29976416581658
 6 -4.66349287988799  6.00935835633563  3.02061156595660
 8 -4.04026407440744  6.68283617161716  3.85455935583558
 7 -6.84957875777578  2.68560845664566 -0.76778843514351
 6 -6.85783849864987  3.97672728992899 -0.36679836853685
 6 -7.76090127652765  4.65019174397440 -1.20697480698070
 6 -8.27125657895789  3.68534546444644 -2.06367531193119
 6 -7.69764865536554  2.41392740154015 -1.72527847434743
 6 -8.19387237813782  6.05983589298930 -1.17813732253225
 6 -9.35811017431743  3.80212061026103 -3.09330396319632
 6 -8.87489894359436  3.93384153035303 -4.63410981498150
 7 -6.37588600760076 -0.18532355005501 -1.09165425742574
 6 -7.31400092969297 -0.08643471207121 -2.07225143584358
 6 -7.53040054725473 -1.33523522712271 -2.73675619821982
 6 -6.70608015681568 -2.20935050685069 -2.13542970867087
 6 -5.95198361376138 -1.39346291139114 -1.12463859425943
 6 -8.49541499929993 -1.66407653365337 -3.80979787598760
 6 -6.15765943304330 -3.57590317421742 -2.03781733683368
 8 -6.47231162666267 -4.54368206660666 -2.66076234133413
 6 -4.98897745984598 -3.56670472307231 -0.88995131493149
 6 -5.35096257365737 -4.63488892999300  0.10886455825583
 8 -5.76999277087709 -4.46549555765577  1.23387975137514
 8 -5.19054875307531 -5.81996319271927 -0.31920506510651
 6 -5.42563012721272 -6.87906976027603  0.60183201300130
 6  2.43317429062906 -5.16798791899190  0.57944189858986
 6  3.41856639163916 -4.09003916481648  0.96713461326133
 6  4.00487987818782 -3.22253512361236  0.11864549954996
 6  3.73206754565457 -3.07333227452745 -1.28979848434844
 6  5.09060548634864 -2.39904495209521  0.67056085488549
 6  6.50233510481048 -2.67720064526453 -0.03109164176418
 6  7.57326264986499 -1.79462881838184  0.62451814231423
 6  9.00678149944994 -2.02425725932593  0.01781399889989
 6  9.40176655835584 -3.43674431483148  0.31127767006701
 6  10.00977155625563 -0.97202744014401  0.43960647614761
 6  11.33248055045505 -1.00594020092009 -0.20849961616162
 6  12.12830051865186  0.29314394189419  0.16851369896990
 6  13.47722017781778  0.44325919581958 -0.60792555575558
 6  14.51911021002100 -0.71103050565056 -0.39507365826583
 6  14.09035497509751  1.76124229582958 -0.24689394419442
 6  15.38025221562156  2.15907393559356 -0.99700469546955
 6  15.84419700410041  3.55758051085109 -0.50143075627563
 6  17.14816006510651  3.94194203580358 -1.31127506270627
 6  17.04561715141514  4.07439233093309 -2.83144536873687
 6  17.82417182328233  5.22287755305531 -0.81164062296230
 1 -2.74300002280228  1.29602387778778  3.68934940334033
 1 -6.27431541034103  5.62013739413941  0.59761875357536
 1 -8.56931733893389  1.09224952785279 -3.25380085888589
 1 -3.52232329712971 -3.18863417881788  1.89638769956996
 1 -1.85621274517452 -1.12237989958996  2.65387666376638
 1 -2.76592637173717 -2.72333549474947  4.16217976197620
 1 -3.29423021572157 -1.19702960736074  4.64650668046805
 1 -4.32759527122712 -2.10469955085509  3.90567451795180
 1 -2.24738005170517 -3.33252276957696 -0.23744436823682
 1 -1.49431726412641 -1.64377349364936 -0.00781265966597
 1 -0.42261769526953 -2.95610690629063  2.38549276797680
 1 -1.36246096769677 -4.48486561776178  1.66667846584658
 1 -1.63498361216122  3.65984550895090  3.89395530523052
 1 -2.95141613171317  4.85400260626063  4.59882614031403
 1 -2.90023301830183  3.14313531103110  5.21378638463846
 1 -5.29720278417842  6.73933812821282  2.53382870427043
 1 -9.94740387388739  2.88737939503950 -2.97844109580958
 1 -10.10439123702370  4.53219706380638 -2.61519180988099
 1 -9.79753955375538  4.22504091809181 -5.18120332263226
 1 -8.41708121752175  5.03585333073307 -4.69631958695870
 1 -8.29538938793879  3.07153651245124 -5.07922784758476
 1 -8.18355594519452 -0.96399694259426 -4.58745974427443
 1 -8.56758774177418 -2.64984838993899 -3.97947058405841
 1 -9.53862394189419 -1.27469429282928 -3.50355726242624
 1 -4.04624198159816 -3.91554638123812 -1.42895618251825
 1  2.73272440544054 -6.09450739373937  1.05812176907691
 1  2.37733847724772 -5.21959893599360 -0.62345579517952
 1  3.72535465776578 -3.94910419221922  2.02100710831083
 1  2.79289427612761 -3.49270489158916 -1.50494303530353
 1  3.68278289158916 -1.95911947124712 -1.49272174267427
 1  4.62947512151215 -3.58629235843584 -1.86903582948295
 1  4.73842388328833 -1.27569399339934  0.46140802430243
 1  5.10375890319032 -2.47845947834783  1.66116099639964
 1  6.43588111481148 -3.61035422752275  0.21605948994900
 1  6.46603676407641 -2.52989059805981 -1.13525412091209
 1  7.34194312561256 -0.66130945604560  0.57938518401840
 1  7.48794089698970 -2.14717130023002  1.62244662996300
 1  8.97295140444044 -1.86834510971097 -0.96284962306231
 1  8.72505702440244 -4.26302507390739 -0.10795458785879
 1  10.22111145194519 -3.71154535663566 -0.49917003050305
 1  9.87445650705071 -3.56418751025102  1.28243868656866
 1  9.45864501510151  0.08584431063106  0.01905726952695
 1  10.04580467796780 -0.82634916881688  1.49671921192119
 1  11.84349949124912 -1.96921695359536  0.08229385618562
 1  11.44314040074008 -0.99964286918692 -1.34681601520152
 1  11.35341637513752  0.98820324952495 -0.25187474267427
 1  12.17283210651065  0.56559775117512  1.29441772197220
 1  13.20714751545154  0.26484091639164 -1.71647388608861
 1  14.80587992629263 -0.87100531323132  0.66570225022502
 1  13.96126169716972 -1.62130114641464 -0.66473279477948
 1  15.30702169056906 -0.72877607580758 -0.94758165066507
 1  13.43379157335734  2.70368498759876 -0.57434922262226
 1  14.29264596489649  2.08273856305631  0.73087030093009
 1  16.38450010581058  1.37902651535154 -0.83883037373737
 1  15.19589517291729  2.08764267706771 -2.09516089578958
 1  15.15700710531053  4.29612499049905 -0.73778577667767
 1  15.93452622272227  3.59502614401440  0.57563746414641
 1  17.97441112251225  3.16685817701770 -1.18481756135614
 1  15.97835855625562  4.67820434933493 -2.99833219301930
 1  17.94426034953495  4.66283579687969 -3.26984158925893
 1  16.77868806900690  3.11085215521552 -3.41598963356336
 1  18.10244629182918  5.17082830033003  0.31321298549855
 1  18.83537105940594  5.41185533773377 -1.18266518091809
 1  17.07080863176317  6.10404990809081 -1.24630869216922
 1 -5.07788308970897 -7.66519595269527  0.35404186648665
 1 -6.47658208850885 -7.07590467706771  0.87391089858986
 1 -4.73059122772277 -6.68738031363136  1.44510896749675
 8 -7.80223781538154  6.94343084388439 -0.51207899189919
 1 -9.18913721082108  6.37835348024803 -1.79079476227623

