%nproc=4
%Mem=4GB
# td=(NStates=1) iop(3/107=0140000000,3/108=0140000000) iop(3/107=0140000000,3/108=0140000000) CAM-B3LYP/6-31G(d,p) 

TD

0 1
12 -5.65351685828583  1.18732360666067  0.18880748594859
 6 -4.95179556675668 -2.11700016331633 -0.39183605040504
 6 -3.46966575567557  1.18770905570557  2.80692606590659
 6 -6.19487828352835  4.53586685088509  0.71942215101510
 6 -7.89117488458846  1.11507235793579 -2.43305097859786
 7 -4.26032028532853 -0.29665785758576  1.04181552035204
 6 -4.18471199869987 -1.56715041664166  0.61965431503150
 6 -3.26433955845585 -2.28370167296730  1.49644400810081
 6 -3.03458662966297 -1.32093498439844  2.68327488358836
 6 -3.63584101150115 -0.10296292399240  2.25200978617862
 6 -3.58049108850885 -1.84463790519052  3.97059975937594
 6 -1.90274546774677 -2.58420582988299  0.76298160366037
 6 -1.02303394689469 -3.59952753335334  1.42339592759276
 6  0.22738783928393 -3.91872571327133  0.62277047174717
 8  0.39454951925193 -3.51144845844584 -0.48853508770877
 8  1.05979282498250 -4.70020963826383  1.33178778607861
 7 -5.01840265656566  2.57490686758676  1.56366659835984
 6 -4.09607169696970  2.38835625732573  2.62169277257726
 6 -3.89601910561056  3.63714221642164  3.27700825702570
 6 -4.66286683938394  4.58458998729873  2.72501177247725
 6 -5.27892399659966  4.00512860806081  1.57669376167617
 6 -2.81604696779678  3.70004738053805  4.37872206160616
 6 -4.76592312291229  6.02492991349135  2.99949945474547
 8 -4.23252330033003  6.46225411341134  3.94658855875588
 7 -6.79631343124312  2.58482837863786 -0.77289894619462
 6 -6.86463917871787  3.94035365256526 -0.47453914261426
 6 -7.84150933733373  4.57311403620362 -1.25509961946195
 6 -8.33252270557056  3.55318224812481 -2.07908685308531
 6 -7.74179306980698  2.38030403920392 -1.80713666016602
 6 -8.38888187908791  6.01705161456146 -1.17338684748475
 6 -9.27202156545655  3.84187458565857 -3.20949558235824
 6 -8.60068152185219  4.20267841404140 -4.51061746574657
 7 -6.40523894289429 -0.13307832553255 -1.01002609460946
 6 -7.30233976357636 -0.04204027262726 -2.07440165086509
 6 -7.39497700490049 -1.26415811941194 -2.84492701530153
 6 -6.54723427222722 -2.16188576037604 -2.17005317101710
 6 -5.89599801520152 -1.38593215831583 -1.12783891429143
 6 -8.25830128792879 -1.63837396339634 -4.03193008920892
 6 -6.09988365546555 -3.53069865376538 -2.12341589668967
 8 -6.49171356685669 -4.44950264866487 -2.76478274337434
 6 -5.00480904300430 -3.51525957855786 -0.97627994779478
 6 -5.40051752915292 -4.58692413351335  0.05361903370337
 8 -5.58897466906691 -4.39737874597460  1.29321568496850
 8 -5.03680337853785 -5.85400659705971 -0.29118226282628
 6 -5.38987655185519 -6.94475632893289  0.49440126992699
 6  2.34784575777578 -5.02320344054405  0.76831078547855
 6  3.36335087008701 -3.98505866676668  1.05080298009801
 6  3.95104449464946 -3.18161103120312  0.21566520152015
 6  3.67650198909891 -3.14222916421642 -1.29611911641164
 6  5.09045547134714 -2.29272432003200  0.83145694449445
 6  6.47755262656266 -2.71537446264626  0.25332680008001
 6  7.55402072567257 -1.67357671317132  0.62840853135314
 6  8.85838665996600 -1.86541137473747 -0.09800758325833
 6  9.54019040074007 -3.31422206260626  0.09753629592959
 6  9.95700627972797 -0.84864510191019  0.34625714121412
 6  11.33835113751375 -0.83267287418742 -0.38709747594759
 6  12.27390507910791  0.28201282878288  0.07851469906991
 6  13.54854731053105  0.44167903780378 -0.57612237543754
 6  14.52096039503950 -0.86146554915492 -0.33059721062106
 6  14.19104504410441  1.79637580918092 -0.17327658245825
 6  15.52110630103010  2.04130215841584 -0.98777377237724
 6  16.12829541394139  3.45524027682768 -0.80055066826683
 6  17.36880212931293  3.78804664626463 -1.51660559575958
 6  17.08691128082808  3.99197408910891 -3.03767599179918
 6  17.92077148324832  5.14642990829083 -0.83799325822582
 1 -2.86249197199720  1.19807408280828  3.81160162856286
 1 -6.44700267906791  5.63657903830383  0.77715670737074
 1 -8.38912932013201  1.13620392329233 -3.37904338313831
 1 -3.77710877567757 -3.27096241164116  1.76338439923992
 1 -2.11274839873987 -1.08818648024802  2.89426070217022
 1 -3.05164494359436 -2.72342550375038  4.42790633463346
 1 -3.50704149684968 -1.25479538393839  4.95930796059606
 1 -4.61144365606561 -2.11466054695470  3.90844479497950
 1 -2.24838015171517 -3.06475599289929 -0.23594421822182
 1 -1.52418025042504 -1.69256837313731  0.51658978057806
 1 -0.46914234773477 -3.22432372797280  2.46832105080508
 1 -1.45900062166217 -4.43407053825383  1.89378117611761
 1 -1.84573468726873  3.36209573397340  3.90708661836184
 1 -2.90308129822982  4.69222642864286  4.79067532523252
 1 -2.91885488048805  3.00769176667667  5.17121212721272
 1 -5.46390945484548  6.40092428682868  2.14319964136414
 1 -9.97809694319432  2.99704036113611 -3.30967421912191
 1 -10.18110890879088  4.41490533463346 -2.87426771747175
 1 -9.31854165396540  4.08618703270327 -5.29817501980198
 1 -7.98573808320832  4.98737848324833 -4.65204515951595
 1 -8.00186003500350  3.29088844764476 -4.78574849964996
 1 -7.78308589818982 -1.27742828572857 -5.09366036433643
 1 -8.41346232923292 -2.68835224032403 -3.97242987998800
 1 -9.34336441594160 -0.98286510991099 -3.87397430413041
 1 -4.02534989238924 -3.91646647324732 -1.33095638253825
 1  2.67304843784378 -5.91522946594659  1.06704266116612
 1  2.10453119651965 -4.88515549164916 -0.42186563616362
 1  3.83482560486049 -3.88144742654266  2.23736874447445
 1  2.53793878057806 -3.33911953305331 -1.68875141614161
 1  3.70707532083208 -2.16542010131013 -1.83559603010301
 1  4.12747492149215 -3.94844857405741 -1.69331825772577
 1  4.96827686858686 -1.17488391239124  0.46539842334233
 1  5.01244977227723 -2.21831346374637  1.94314919521952
 1  6.58105563226323 -3.89020221232123  0.45170305430543
 1  6.32598275867587 -2.59297690669067 -0.85215581108111
 1  7.16034496579658 -0.69674299939994  0.13749099459946
 1  7.66765886878688 -1.65638222132213  1.80076446174617
 1  8.61385549484948 -1.72556083128313 -1.22468580668067
 1  8.84045856455645 -4.22763153455346 -0.18307209960996
 1  10.32765210601060 -3.44502870497050 -0.82855296879688
 1  9.88733779517952 -3.49085017651765  1.13759420212021
 1  9.62786193679368  0.18221394759476  0.26467183098310
 1  10.26364646214621 -1.08037457135714  1.44637417741774
 1  11.90922606390639 -1.76714674657466 -0.10502487568757
 1  11.14100018671867 -0.74648755365537 -1.44692602620262
 1  11.73306433993399  1.36032046124612 -0.08721827702770
 1  12.49728455175517  0.18971016241624  1.13765204540454
 1  13.49995679637964  0.43253768606861 -1.67573981268127
 1  14.70847018531853 -1.03768198089809  0.81252693269327
 1  13.90240581158116 -1.72115113141314 -0.55015133663366
 1  15.51226221462146 -0.75370856905691 -0.88564545704570
 1  13.42911110531053  2.66993161226123 -0.30454224192419
 1  14.29011571187119  1.56072636183618  0.82170938483848
 1  16.23548520432043  1.24546315901590 -0.89628611931193
 1  15.23244882828283  1.94994890769077 -2.04813619331933
 1  15.42170357495750  4.15215059305931 -1.37059905800580
 1  16.03541631173118  3.67033367476748  0.30847074747475
 1  18.18881256265627  3.02031352255226 -1.39660874047405
 1  16.14493521392139  4.74104063296330 -3.16573893369337
 1  18.19458538203821  4.12167168046805 -3.47215182028203
 1  16.78186838703870  2.92656372637264 -3.32238027262726
 1  18.06951299849985  5.05915713321332  0.36212787698770
 1  19.01913943624362  5.17002115431543 -1.04351126552655
 1  17.24705625652565  6.04237374047405 -1.23199726102610
 1 -5.52596789818982 -7.77751718481848 -0.25514905260526
 1 -6.41172560286029 -6.75928301490149  0.82918642614261
 1 -4.62742091069107 -6.94194577017702  1.41447590419042
 8 -7.89599719131913  6.79504600540054 -0.38745652965297
 1 -9.23445174227423  6.17506315121512 -1.86735241804180

