%nproc=4
%Mem=4GB
# td=(NStates=1) iop(3/107=0140000000,3/108=0140000000) iop(3/107=0140000000,3/108=0140000000) CAM-B3LYP/6-31G(d,p) 

TD

0 1
12 -5.73526503310331  1.20270514481448  0.22739134433443
 6 -5.00097048424843 -2.15255371867187 -0.35973284008401
 6 -3.46232502160216  1.17684796959696  2.69320469376938
 6 -6.17188598429843  4.58353161736174  0.64666487528753
 6 -8.13568933603360  1.15018586928693 -2.29658733223322
 7 -4.43583783708371 -0.31588978077808  1.04840617941794
 6 -4.25372890039004 -1.54453815541554  0.62512486208621
 6 -3.21164428892889 -2.37385068786879  1.51554591829183
 6 -2.86208937993799 -1.32840573147315  2.56357291339134
 6 -3.66531395879588 -0.06451907960796  2.13623820902090
 6 -3.50799383878388 -1.91155459685969  3.96867956735674
 6 -1.84827002020202 -2.71045845514551  0.73026833233323
 6 -1.05824746824682 -3.58634621522152  1.38787237523752
 6  0.23660876137614 -3.87593143384338  0.59608780348035
 8  0.39210927522752 -3.26068338193819 -0.49827606180618
 8  1.13847069276928 -4.74890450775078  1.00831543884388
 7 -4.89559037533753  2.55491486838684  1.46772700440044
 6 -4.03026511631163  2.39348677037704  2.48429903320332
 6 -3.72603210691069  3.65664416661666  3.07644820102010
 6 -4.42478303100310  4.64948647694770  2.49860913221322
 6 -5.35229133333333  3.96491458665867  1.46030212251225
 6 -2.78935429852985  3.70477785358536  4.25081927132713
 6 -4.46031256185619  6.03068048854885  2.83629313411341
 8 -3.92088213621362  6.48868675667567  3.81456535643564
 7 -6.82815661556156  2.60737063286329 -0.69294095039504
 6 -6.95753846864686  3.86631624882488 -0.38695038373837
 6 -7.81406659305931  4.54426115091509 -1.31525563506351
 6 -8.50236969026903  3.60302723262326 -2.08889783418342
 6 -7.80782967346735  2.34752076087609 -1.77928387488749
 6 -8.17101009190919  5.96712662206221 -1.25130463926393
 6 -9.51714607790779  3.87809820802080 -3.06517114991499
 6 -9.02664411811181  4.03843198939894 -4.44941134513451
 7 -6.44473289228923 -0.20953597129713 -1.07662275427543
 6 -7.45283481308131 -0.02832890149015 -1.99814402510251
 6 -7.66054356155616 -1.34880658425843 -2.73080560316032
 6 -6.71521106990699 -2.15373494529453 -2.13004917061706
 6 -6.05769418481848 -1.48217178227823 -1.12250838123812
 6 -8.58399385718572 -1.70664079007901 -3.85465236143614
 6 -6.20760442754275 -3.55979156305631 -1.98017157225723
 8 -6.70234462996300 -4.52791048944894 -2.54814107920792
 6 -5.12830139223922 -3.58382643524352 -0.93439575937594
 6 -5.47759523692369 -4.64927036813681  0.25039871167117
 8 -5.71707747934793 -4.38291729982998  1.35587195059506
 8 -5.19051875007501 -5.87631882828283 -0.33578672327233
 6 -5.34842240644064 -6.93478533183318  0.72778460826083
 6  2.41337231043104 -4.95245636583658  0.51015496989699
 6  3.47177171217122 -4.02598275917592  0.99037693749375
 6  4.08456784698470 -3.08847171727173  0.18901253625363
 6  3.71469580848085 -2.97687262856286 -1.24710421492149
 6  5.14805123092309 -2.30715576317632  0.69755355415542
 6  6.47396226752675 -2.64673759895990  0.02939440684068
 6  7.68282360596060 -1.84066342184218  0.57886357685769
 6  9.04313513481348 -1.94359919351935 -0.11938972147215
 6  9.64296067776778 -3.29973061346135 -0.06279973767377
 6  9.96644722382238 -0.76741697909791  0.46319883538354
 6  11.28134543694369 -0.68027763466347 -0.26135490169017
 6  12.26188387698770  0.48714334183418  0.04291113871387
 6  13.60246270207021  0.51245611551155 -0.62969773297330
 6  14.42468076707671 -0.68490789338934 -0.29691384228423
 6  14.27356329592959  1.80607677927793 -0.27381663646365
 6  15.65029922032203  2.02978100630063 -1.00219521452145
 6  16.29545212961296  3.35758051085108 -0.55672628582858
 6  17.56971222032203  3.72064990659066 -1.16568050325033
 6  17.27537012671267  4.04505939763976 -2.79132135633563
 6  18.07276668276828  5.04542980828083 -0.55901536043604
 1 -2.75872159495950  1.03978825422542  3.61141160956096
 1 -6.51165914471447  5.74357973837384  0.55976496819682
 1 -8.70467087428743  1.11144144704470 -3.13361884068407
 1 -3.57092815761576 -3.38437375277528  1.87799586038604
 1 -1.90430755465547 -1.12368002960296  2.57787906400640
 1 -2.81524130323032 -2.76006916811681  4.16892043604360
 1 -3.37318811151115 -1.22349225362536  4.98091012081208
 1 -4.63463597529753 -2.08122720362036  3.74774872537254
 1 -2.25046035973597 -3.15872538983898 -0.36667729152915
 1 -1.38464629702970 -1.88008712501250  0.35632375397540
 1 -0.48807424092409 -3.20529182478248  2.30044426312631
 1 -1.61520624222422 -4.42149928112811  1.81696349434943
 1 -1.73215332913291  3.62772229662966  3.95875178487849
 1 -2.75061605170517  4.81862906890689  4.73515977367737
 1 -2.97151014601460  2.94122512001200  5.09987499349935
 1 -5.22595565946595  6.61230542494249  2.20397571897190
 1 -10.09168830233023  3.03781443854386 -2.99406265796580
 1 -10.27700849874988  4.56216006010601 -2.74123441414141
 1 -10.02081188098810  4.19952836683668 -5.18065326762676
 1 -8.44426393579358  4.94107385278528 -4.57348730373037
 1 -8.54400424942494  3.24225358415842 -4.84033395819582
 1 -8.33383097269727 -1.10365090799080 -4.59258025632563
 1 -8.37254823782378 -2.74976838193819 -4.22672530953095
 1 -9.58262834233423 -1.73794061746175 -3.49016592329233
 1 -4.22145950335034 -3.95196002260226 -1.51647493439344
 1  2.46958809180918 -5.96724466746675  0.82756871377138
 1  2.41831257465747 -4.73664064016402 -0.67004045364536
 1  3.77781990429043 -3.97996727852785  2.08725373297330
 1  2.49150413711371 -2.88356397749775 -1.32989553055306
 1  4.09048366166617 -1.95448900820082 -1.82894536503650
 1  4.14387656165617 -3.70028375757576 -1.82080100600060
 1  5.03895393629363 -1.15987241124112  0.50825270877088
 1  5.21720024732473 -2.42508414081408  1.92635751605160
 1  6.76173370007001 -3.59261245334533  0.12850073407341
 1  6.62737289768977 -2.44401201020102 -1.11262185768577
 1  7.43148207950795 -0.82218554365437  0.47607485298530
 1  7.86079818271827 -2.11489807290729  1.67024140944094
 1  8.80330443974397 -1.74150242544254 -1.24037737583758
 1  9.22543706240624 -4.12458122952295 -0.75142893529353
 1  10.83627296809681 -3.23682788488849 -0.25907602110211
 1  9.59524858625863 -3.80904199569957  1.03946438913891
 1  9.37386653725373  0.06865259145915  0.58359372317232
 1  10.18391848934893 -1.01019755365537  1.47986752675268
 1  11.92232737403740 -1.42756278817882  0.04468009480948
 1  11.24314040074007 -0.67608051295129 -1.46820815441544
 1  11.83035406890689  1.62337676687669 -0.07815737093709
 1  12.43203802710271  0.49126031743174  1.20209849004901
 1  13.50135693639364  0.47919235153515 -1.65595783448345
 1  14.66204554285429 -0.76330454315432  0.73887956795680
 1  13.95256082708271 -1.80488950525052 -0.50173649514952
 1  15.30390137853786 -0.72574577277728 -1.00290718321832
 1  13.52435062926293  2.71711633073307 -0.65847763546355
 1  14.48536523682368  2.11967225642564  0.88195540944094
 1  16.52293394919492  1.18853746644664 -0.70688717941794
 1  15.33342892629263  2.06775068786879 -2.06579795949595
 1  15.33388479307931  4.12695807380738 -0.69686168426843
 1  16.32103487358736  3.28235487688769  0.67151705210521
 1  18.26749043044304  2.92471396259626 -0.95200428002800
 1  16.66532725312531  5.07305383428343 -3.23369572937294
 1  18.36729265276528  4.20435994929493 -3.31258586368637
 1  16.95754595479548  3.07058812881288 -3.38238627322732
 1  18.13058910611061  4.76480769826983  0.49795145934594
 1  18.95529305160516  5.30593474567457 -1.04711162556256
 1  17.17816936783678  5.68365786888689 -0.57093115441544
 1 -5.24873017441744 -7.86593602670267 -0.10995453315332
 1 -6.35031946224623 -6.96611369796980  1.13246675417542
 1 -4.72539070767077 -6.93629520512051  1.53256771337134
 8 -7.82973056465647  6.77783428422842 -0.40855863986399
 1 -8.88521681878188  6.12092773767377 -1.95308099089909

