%nproc=4
%Mem=4GB
# td=(NStates=1) iop(3/107=0140000000,3/108=0140000000) iop(3/107=0140000000,3/108=0140000000) CAM-B3LYP/6-31G(d,p) 

TD

0 1
12 -5.67463897049705  1.19798467276728  0.18324692989299
 6 -4.92074246144615 -2.13969243254325 -0.44838170497050
 6 -3.44700348944894  1.15619590439044  2.76463183648365
 6 -6.33820261596160  4.56285955015502  0.74566477527753
 6 -7.96074184128413  1.17159801050105 -2.37927560106011
 7 -4.28432268556856 -0.25431362316232  1.01353269206921
 6 -4.13441696919692 -1.53466716831683  0.50881323092309
 6 -3.17103022752275 -2.24839814261426  1.39133349704971
 6 -2.87945111611161 -1.29231212211221  2.57806436253625
 6 -3.55876330373037 -0.06755938363836  2.09197378257826
 6 -3.49581262066207 -1.84784822622262  3.93044574397440
 6 -1.96754194739474 -2.75311272057206  0.59241454695470
 6 -0.98720036353635 -3.67461504210421  1.33592718071807
 6  0.38029312981298 -3.85152899359936  0.56190438513851
 8  0.52751281558156 -3.50270758435844 -0.51726796099610
 8  1.20955780148015 -4.64053367066707  1.29157376467647
 7 -5.03378419471947  2.61548092499250  1.52769300100010
 6 -4.04007609740974  2.39385680738074  2.53155375867587
 6 -3.81967147084708  3.54860336253625  3.26750730693069
 6 -4.57602815551555  4.56031756005601  2.64659393069307
 6 -5.30949705390539  3.95289338453845  1.54580067236724
 6 -2.92238760186019  3.72880025582558  4.42769695909591
 6 -4.63249978057806  6.00306772727273  3.01176068086809
 8 -4.07081712971297  6.50396828482848  3.95636953685369
 7 -6.89635343524352  2.65817571337134 -0.67235889218922
 6 -6.97844055885589  4.00868048524852 -0.44868655735574
 6 -7.89140432683268  4.69254597939794 -1.27707181668167
 6 -8.51868132143214  3.57560449034903 -2.15666461086109
 6 -7.83558244874487  2.35368137693769 -1.70439638613861
 6 -8.44690768166817  6.02987289668967 -1.17106661546155
 6 -9.48390275357536  3.84776517471747 -3.18978361116112
 6 -8.73285473917392  4.12498064426443 -4.49504590859086
 7 -6.32542096109611 -0.09783480118012 -1.07508260026003
 6 -7.25084461406141  0.01338526992699 -2.27866207690769
 6 -7.43810131733173 -1.37105880948095 -2.77037956055606
 6 -6.70369991879188 -2.10374994679468 -2.05711187688769
 6 -5.90212862826283 -1.37442100720072 -1.07687381778178
 6 -8.34856031383138 -1.70954108010801 -3.93738063426343
 6 -6.18642230933093 -3.50709629352935 -2.02557611271127
 8 -6.48554294979498 -4.50308800720072 -2.70231649674967
 6 -5.04294285638564 -3.57325537813781 -0.96494881468147
 6 -5.33881135853585 -4.58828426952695  0.17677134893489
 8 -5.77290306190619 -4.28723773187319  1.25109147254725
 8 -5.21476117431743 -5.87829902630263 -0.20188333293329
 6 -5.59342690689069 -6.96028788208821  0.66293812361236
 6  2.35848682188219 -5.08322944314431  0.69370332473247
 6  3.45473000800080 -4.18084824572457  1.00110801060106
 6  4.08526791699170 -3.33897676777678  0.21188482348235
 6  3.81878621752175 -3.09777471877188 -1.31214071857186
 6  5.19257568336834 -2.48779382698270  0.78598239703970
 6  6.56810168146815 -2.63789671487149  0.13448491589159
 6  7.69750507410741 -1.74391374687469  0.60366605710571
 6  9.04085490679068 -1.95717055065507 -0.02724050655066
 6  9.61472785448545 -3.38493913431343  0.36853339563956
 6  9.99325990509051 -0.76937717511751  0.43098561406141
 6  11.28322562496250 -0.74186379327933 -0.40966973317332
 6  12.18606629522952  0.35254988248825  0.14172101970197
 6  13.56477893369337  0.44365923582358 -0.65486024922492
 6  14.48814711371137 -0.72518192079208 -0.26944109500950
 6  14.27039297889789  1.80305647724772 -0.20264951975198
 6  15.33467765816582  2.22369039723972 -1.05558055305531
 6  16.09037162156216  3.44607936073607 -0.61676228942894
 6  17.40614586368637  3.80920876247625 -1.42000593579358
 6  17.02000459015902  3.96900179187919 -2.96412863706371
 6  18.05039444554455  5.03285855115512 -0.85116457535754
 1 -2.78162388518852  1.10324459985999  3.66507697609761
 1 -6.59366734553455  5.57294267466747  1.04714370607061
 1 -8.76165657285729  1.21692199509951 -3.23791927072707
 1 -3.46246731153115 -3.30472578797880  1.86048410921092
 1 -1.82847997189719 -1.03029069066907  2.65979725582558
 1 -3.08276805590559 -2.84068722992299  4.28331187518752
 1 -3.29491028372837 -1.22878278267827  4.80823285308531
 1 -4.54294680638064 -2.11942102300230  3.80478442894289
 1 -2.12635794949495 -3.32193171047105 -0.33254387818782
 1 -1.39518735113511 -1.72802191849185  0.29904802640264
 1 -0.67365279877988 -3.13584488008801  2.23234745344535
 1 -1.55736045764576 -4.63877100830083  1.42724452245224
 1 -1.89979009280928  3.39462898729873  4.02830874057406
 1 -2.81672266236624  4.72586979297930  5.06457271497150
 1 -3.35274826982698  3.03471446894689  5.33070807680768
 1 -5.49584264816482  6.59777397179718  2.32166748814881
 1 -10.19595872937294  3.02727338443844 -3.28574182588259
 1 -10.18582938083808  4.70210405450545 -2.88624891559156
 1 -9.37056685648565  4.38533694769477 -5.34243944624462
 1 -7.84581409080908  5.09465921132113 -4.33654360936094
 1 -8.24423427242724  3.23297265606561 -4.94200412521252
 1 -8.41822941254125 -1.21698224112411 -4.92207320562056
 1 -8.50477146014602 -2.76852025712571 -3.88803144014401
 1 -9.25174525402540 -1.46887371077108 -3.75914282098210
 1 -4.23820117751775 -3.69466429302930 -1.53794708160816
 1  2.57106823982398 -6.00714865786579  0.89721567846785
 1  2.35163590699070 -4.94379135523552 -0.39013246284628
 1  3.84155627792779 -4.27488677047705  2.10433544114411
 1  2.83760874757476 -3.62609823092309 -1.25070761176118
 1  3.93318793209321 -2.05098865816582 -1.58723119361936
 1  4.34281645564556 -3.76966069526953 -1.90443936983698
 1  4.83716375727573 -1.27790421442144  0.70686256975698
 1  5.14101262856286 -2.87837947034703  1.78155303560356
 1  6.81244877157716 -3.68993218531853  0.48196608060806
 1  6.50386054645465 -2.90005761476148 -0.98709930543054
 1  7.39616854815482 -0.67501082618262  0.24606185168517
 1  7.67389949284929 -1.52745932903290  1.80472485778578
 1  8.96922103140314 -1.92269054425443 -1.05556889498950
 1  8.90023454215421 -4.01151992339234  0.16304251185118
 1  10.70133947474748 -3.67144134623462 -0.07657777127713
 1  9.76467552895290 -3.57606869836984  1.35754619731973
 1  9.45044419501950  0.20002572877288  0.31780714451445
 1  10.39061915941594 -1.07158369226923  1.46709624962496
 1  11.67008214951495 -1.74292432433243 -0.55728010121012
 1  11.14737082378238 -0.54205711061106 -1.50562189578958
 1  11.49547058055806  1.09174360356036  0.04303474827483
 1  12.49475429872987 -0.02039084768477  1.35025330553055
 1  13.78144494519452  0.20113454575458 -1.67725996469647
 1  14.73393273157316 -0.84258247094709  0.81665734573457
 1  14.03924949594959 -1.78663768006801 -0.44297061856186
 1  15.40671165956596 -0.72590578877888 -0.66008290079008
 1  13.60981917611761  2.62400701980198 -0.31603339103910
 1  14.41337803810381  1.79361965116512  0.91479869376938
 1  16.20754241004100  1.47633624632463 -1.27153364406441
 1  14.84262984638464  2.27980189298930 -2.08959033873387
 1  15.40103150775078  4.34028940694069 -0.91356335443544
 1  16.32124489458946  3.24820146154615  0.48959886028603
 1  17.98630231163116  3.00644213541354 -1.37783686328633
 1  16.08568928932893  4.69191572047205 -3.21302366216622
 1  17.93099902340234  4.15886539983998 -3.60540514561456
 1  16.77674787498750  2.84387545754575 -3.30038807340734
 1  18.20421646884688  4.98324954245425  0.20074173837384
 1  19.14611213351335  5.12311646384638 -1.39196611101110
 1  17.61154270517052  6.10856035913591 -1.21163522482248
 1 -5.35195049644965 -7.91424085718572  0.24394085638564
 1 -6.82576700700070 -7.00607769436944  0.71013452095210
 1 -5.10627879647965 -6.83434501010101  1.54370882748275
 8 -7.96392398399840  6.92410891169117 -0.40695847984798
 1 -9.27725602270227  6.13534917981798 -1.93350903370337

