%nproc=4
%Mem=4GB
# td=(NStates=1) iop(3/107=0140000000,3/108=0140000000) iop(3/107=0140000000,3/108=0140000000) CAM-B3LYP/6-31G(d,p) 

TD

0 1
12 -5.68846035263526  1.16066094039404  0.27025563076308
 6 -5.02849323652365 -2.12015047834783 -0.39385625242524
 6 -3.38281707080708  1.20045032983298  2.79730510381038
 6 -6.26812560826083  4.61729499369937  0.74293450225022
 6 -7.93995976307631  1.22571342204220 -2.49097677117712
 7 -4.41197545084508 -0.31928011981198  1.04367570637064
 6 -4.29537306480648 -1.62466616821682  0.61356370597060
 6 -3.27014013851385 -2.33545684848485  1.50252461616162
 6 -3.00786395739574 -1.36024891579158  2.66061261736174
 6 -3.58578600600060  0.00155752805281  2.15394998019802
 6 -3.58274131353135 -1.72985642704270  3.97225992539254
 6 -2.01426661986199 -2.62196960626063  0.68830413591359
 6 -1.03421506500650 -3.55723330393039  1.39138272627263
 6  0.23650875137514 -3.89121296199620  0.57365556025603
 8  0.44584464876488 -3.27639495309531 -0.47008324252425
 8  1.03315016071607 -4.74710432773277  1.17128173547355
 7 -4.89289010531053  2.65069444634463  1.49251948364837
 6 -4.13043513331333  2.49000642234223  2.53830443374337
 6 -3.87376688038804  3.57861636383638  3.31787234343434
 6 -4.56789734243424  4.56261779007901  2.68036730803080
 6 -5.38778488268827  3.99565766096610  1.58421451375138
 6 -2.91288665176518  3.64797217301730  4.31765595499550
 6 -4.64834136473647  6.04569198969897  3.01859136393639
 8 -4.00217026502650  6.50194808280828  4.01545544544454
 7 -6.86612041194119  2.70889078487849 -0.74913656995700
 6 -6.95588830363036  3.94122373957396 -0.38476016471647
 6 -7.86371155755576  4.55223194799480 -1.16141025052505
 6 -8.25611506480648  3.65580251015102 -2.18473741814181
 6 -7.61634052455246  2.48864487328733 -1.79425537203720
 6 -8.30368335923592  5.97386729612961 -1.16371588038804
 6 -9.32763712701270  3.77895829402940 -3.27597223002300
 6 -8.62470392409241  3.95941408760876 -4.69161556555656
 7 -6.19911833083308 -0.16795181288129 -1.21198629062906
 6 -7.25723525312531  0.00352428382838 -2.10947515821582
 6 -7.55994350155016 -1.41661336493649 -2.73414593719372
 6 -6.63934348314832 -2.15422499429943 -2.14163032873287
 6 -5.92658107350735 -1.41275484058406 -1.21271740214021
 6 -8.34165962376238 -1.68051817781778 -3.94685158135814
 6 -6.09873354045405 -3.57479306320632 -1.95130868596860
 8 -6.49917431293129 -4.48555625402540 -2.59987625272527
 6 -5.01618018011801 -3.51426947954795 -0.83315563536354
 6 -5.37489496689669 -4.50194563566357  0.21164483628363
 8 -5.86155192679268 -4.41711071917192  1.26633299669967
 8 -5.11492119031903 -5.85127632403240 -0.22556570117012
 6 -5.45307287148715 -6.81435328862886  0.72076390619062
 6  2.23100407360736 -5.01181230143014  0.53260721512151
 6  3.45379991499150 -4.13684384528453  0.90693859365937
 6  4.13466285648565 -3.28642151225123  0.11750538553855
 6  3.78545288418842 -3.15958089938994 -1.29101860636064
 6  5.24942136793679 -2.55010005760576  0.79512331113111
 6  6.60804567586759 -2.87374029922992  0.12424389178918
 6  7.71068639223922 -1.99443879937994  0.65056074657466
 6  9.06399722102210 -2.06198103170317 -0.06223400590059
 6  9.77170355205521 -3.35713635403540  0.26463300560056
 6  9.99119969906991 -0.97440767816782  0.43185570107011
 6  11.31389869226923 -0.87193680058006 -0.38888765496550
 6  12.23559124772477  0.20001462896290  0.09071591919192
 6  13.54374683048305  0.53471834173417 -0.73114787798780
 6  14.45577387638764 -0.63354275687569 -0.60808495939594
 6  14.17835377497750  1.74165033663366 -0.13758301310131
 6  15.34561875227523  2.10302833103310 -1.11179617461746
 6  15.92875545994599  3.46480123292329 -0.72617323052305
 6  17.26670191929193  3.97156499809981 -1.36478041324132
 6  17.08544113381338  4.11387627932793 -2.77711993619362
 6  17.79810921702170  5.27237250255026 -0.71666112501250
 1 -2.81772749554956  0.99061333673367  3.62441290969097
 1 -6.53425140394039  5.58786416681668  0.55780477217722
 1 -8.79711011821182  1.37961826472647 -3.09616509530953
 1 -3.84988605340534 -3.21857717311731  1.97293535433543
 1 -1.86334345824582 -1.29613727532753  2.82617389348935
 1 -2.98001778087809 -2.61572473367337  4.27166071007101
 1 -3.22483327602760 -1.00161006540654  4.99419144894489
 1 -4.53465597729773 -1.90676975787579  3.83783773427343
 1 -2.36252156585659 -2.91649116641664 -0.32319294309431
 1 -1.74737256965697 -1.39353847014701  0.42522064366437
 1 -0.80746618011801 -2.73491478707871  2.25120933963396
 1 -1.67012173377338 -4.35920305150515  1.56443824182418
 1 -1.86228634243424  3.68180770517052  3.94231014071407
 1 -2.99395038513851  4.60092729872987  4.91255751345135
 1 -2.91166416141614  2.92542353985399  5.02989799579958
 1 -5.43473653755376  6.68709290369037  2.63337865926593
 1 -10.04674380788079  2.79146980408041 -3.09531278297830
 1 -10.06557735563556  4.79818366246625 -3.15872616331633
 1 -9.34184398419842  3.93150156415642 -5.50411561386139
 1 -8.28146765616562  4.93668341374137 -4.77154710971097
 1 -7.72577242624262  3.20463982278228 -4.82467239203920
 1 -8.01606919651965 -0.96621716461646 -4.86631763006301
 1 -8.04106508950895 -2.70340374547455 -4.30603324032403
 1 -9.27666774627463 -1.59101592499250 -3.71589849654965
 1 -4.13254061146115 -3.90885571217122 -1.61626491339134
 1  2.53447458045805 -5.98576651965196  0.76271222812281
 1  2.01622236563656 -4.98298527462746 -0.53146659625963
 1  3.82114423672367 -4.22463174497450  1.97255226282628
 1  2.99458444514452 -3.67487310841084 -1.57811035203520
 1  3.94802941624162 -2.11808536783678 -1.53481595209521
 1  4.55594776877688 -3.57284101330133 -1.85281420732073
 1  5.03145318621862 -1.33992041604160  0.52791467496750
 1  4.96178470577058 -2.47788942134213  1.79862474277428
 1  6.84927245394540 -3.81934512661266  0.41558944294429
 1  6.58202836323632 -2.72809041804180 -0.83995459095910
 1  7.42280121142114 -0.96259958505851  0.65714295979598
 1  7.78809091199120 -2.18466504960496  1.77822220752075
 1  8.77719182848285 -1.80067834303430 -1.10296363446345
 1  9.16589110781078 -4.28767753915391 -0.07448124052405
 1  10.63346268706871 -3.51768597069707 -0.15433554705471
 1  10.01256031743174 -3.27101819331933  1.27637808050805
 1  9.50896004660466 -0.03802807660766  0.45187055085509
 1  10.25055515301530 -1.07145367926793  1.50791033103310
 1  11.74619976127613 -1.81717174907491 -0.44711908510851
 1  11.06857294399440 -0.79325223012301 -1.52332366596660
 1  11.70661169466947  1.06878130733073  0.08242868766877
 1  12.50561538483848  0.03176436783678  1.09073735393539
 1  13.16822362306231  0.78628306060606 -1.74480671937194
 1  15.06021535983598 -0.63294150685069  0.23074875487549
 1  13.96274184518452 -1.63038205450545 -0.46130245174517
 1  15.35876686508651 -0.65276847504750 -1.24234112661266
 1  13.44333252745274  2.56188080718072 -0.26575836353635
 1  14.50090679097910  1.69578986818682  0.78769598349835
 1  16.22513416921692  1.36686529922992 -1.12683917461746
 1  14.97130271367137  1.90310422322232 -2.19924130383038
 1  15.28121952655266  4.21395677367737 -0.85201719981998
 1  16.19414218431843  3.36818345974597  0.39892979337934
 1  18.00919460086008  3.07866935813581 -1.05151423102310
 1  16.34546526692669  4.86249277817782 -2.88990134993499
 1  18.18344426792680  4.50915042834283 -3.12326693179318
 1  16.69024922512251  3.20255132513251 -3.26872490709071
 1  17.74569061626162  5.13729494699470  0.30811247544754
 1  18.71928945124512  5.33976812901290 -1.27686460086009
 1  17.20558210911091  6.17269677277728 -1.02653671497150
 1 -5.14325962736274 -7.66829626272627  0.16845330763076
 1 -6.59077350765077 -6.55538262486249  1.02706621412141
 1 -4.83482165076508 -6.71077265286529  1.64062851945195
 8 -7.81381897349735  6.84769126992699 -0.42503028702870
 1 -8.78392668976898  6.19823546844684 -2.10663634643464

