%nproc=4
%Mem=2GB
# td=(NStates=1) iop(3/107=0140000000,3/108=0140000000) iop(3/107=0140000000,3/108=0140000000) CAM-B3LYP/6-31G(d,p) 

TD

0 1
12 -6.73615618771877  0.69741888598860  0.14938255775578
 6 -4.51785889238924 -2.00313873567357  0.47181745874587
 6 -4.35595741114111  2.76588822192219  1.11208409000900
 6 -8.96687939263926  3.24736876097610 -0.14355385708571
 6 -9.36958505610561 -1.85438846844684 -0.45975603430343
 7 -4.82534760666067  0.47944734243424  0.70905993809381
 6 -4.09883714931493 -0.68223793059306  0.66540709610961
 6 -2.55043846244624 -0.48342010121012  0.85853791609161
 6 -2.56897686348635  1.04423457225723  1.41731389388939
 6 -4.03243950685069  1.37137722292229  1.00402517721772
 6 -2.12311859755976  1.12978477437744  2.75687024982498
 6 -1.49515826422642 -0.63250581398140 -0.32598127182718
 6 -0.15106322462246 -1.05579728632863  0.22071114461446
 6  0.78450953015302 -1.20336757365737 -0.92537071087109
 8  0.61489155725573 -0.50503311581158 -1.99934092429243
 8  1.82116240284028 -1.97726802540254 -0.58918384088409
 7 -6.76748849104911  2.57315768576858  0.41976572447245
 6 -5.66308686958696  3.29545818901890  0.75010130633063
 6 -5.90408462366237  4.79073875867587  0.74661953055305
 6 -7.06282699609961  4.96022211271127  0.28568515181518
 6 -7.67435913981398  3.49105791419142  0.07511234263426
 6 -4.95574049434943  5.90931836233623  0.95986365436544
 6 -8.07404896619662  6.03625054515452 -0.05810628692869
 8 -7.65798971517152  7.19023063966397  0.00017787458746
 7 -8.80250380388039  0.68061892109211 -0.28719136823682
 6 -9.46566023842384  1.79040377567757 -0.32078313061306
 6 -10.77942457275728  1.54516438753875 -0.84502028322832
 6 -11.01739609710971  0.12555345974597 -0.77570842634263
 6 -9.78443010631063 -0.34017218041804 -0.56015809250925
 6 -11.97444421972197  2.34768096119612 -1.15052970377038
 6 -12.20240336083608 -0.64912847514751 -1.09987812151215
 6 -12.25374223632363 -0.89347151235124 -2.56930972567257
 7 -6.90844732763276 -1.42140470177018  0.06704405990599
 6 -7.96432909450945 -2.27002699939994 -0.26580977897790
 6 -7.55407299239924 -3.65864318671867 -0.33686469656966
 6 -6.14112973417342 -3.61280044094409 -0.01428968956896
 6 -5.88723501220122 -2.16690550505051  0.23721990629063
 6 -8.36932545604560 -4.87589496729673 -0.61029384528453
 6 -4.95258146264626 -4.39406520462046  0.10574860056006
 8 -4.74080582928293 -5.52627316561656 -0.03091258465847
 6 -3.89145287068707 -3.35970652985299  0.39549419661966
 6 -3.25134864576458 -3.73022919841984  1.87453716671667
 8 -3.83817905800580 -3.89660639543954  2.98933760356036
 8 -1.97609928482848 -3.64397070237024  1.77428736793679
 6 -1.21676019811981 -3.84127921802180  2.92876730193019
 6  2.89559145194519 -2.09399457635764 -1.64922616671667
 6  3.93369713711371 -1.16222322342234 -1.08143367566757
 6  5.24382513791379 -1.13255012641264 -1.91909811141114
 6  5.34548853265327 -1.86291942664266 -3.26612359455946
 6  6.32268609320932 -0.02378003090309 -1.57879443794379
 6  7.47308600260026 -0.84272005410541 -0.98434517181718
 6  8.40441300160016  0.24051968656866 -0.61990047054705
 6  9.78390147954796 -0.36714363466347 -0.04877318301830
 6  9.57229474577458 -1.01854066876688  1.28070243904390
 6  11.01943427342734  0.44245910011001  0.17137197559756
 6  12.23950922142214 -0.15610430323032  0.07566587778778
 6  13.43630517311731  0.81102837753775  0.24856775517552
 6  14.93598993419342  0.13468674677468  0.26075073717372
 6  14.81649663776378 -0.67832011251125  1.69340926492649
 6  16.01818144654466  1.28740364236424  0.44960816611661
 6  17.51740121822182  0.68167339173917  0.25014814091409
 6  18.46946649404941  1.79314650585058 -0.02982312911291
 6  19.83706590769077  1.21487998279828 -0.15709579327933
 6  20.00110991229123  0.64358978927893 -1.66993278447845
 6  21.00533770267027  2.39467088508851 -0.13379847574757
 1 -3.62483312161216  3.53397464846485  1.27996739843984
 1 -9.31370535303530  3.93400248534854 -0.74175780968097
 1 -10.65320781238124 -2.64074447374737 -0.40275310121012
 1 -2.08435095189519 -1.09413703150315  1.70324037233723
 1 -1.88032737133713  1.75124560076008  0.65830228362836
 1 -1.17037842154215  0.65816413081308  3.07073778487849
 1 -1.69505767966797  2.09186776317632  3.09328544634463
 1 -2.48915124762476  0.83970185548555  3.72088795789579
 1 -1.77202622292229 -1.38120939393939 -0.78580636743674
 1 -1.38967413641364 -0.01675314821482 -0.86674646544654
 1  0.13026102440244 -0.46123755705571  0.93944981018102
 1 -0.29474319411941 -2.04293062686269  0.67403763586359
 1 -4.16919144954495  5.59581740964096  0.20836579427943
 1 -5.31848212881288  6.73183585948595  0.51868877497750
 1 -4.93075410361036  6.33505246624662  2.13174094639464
 1 -9.53199621372137  5.89862497169717 -0.24397077287729
 1 -12.32008156175618 -1.51504237173717 -0.60679510671067
 1 -13.08511472647265 -0.06150975117512 -0.54477211361136
 1 -13.42796061916192 -1.13325544094409 -2.78460557765777
 1 -12.12027899169917 -0.23292587108711 -2.77722989248925
 1 -11.71784860926093 -1.68498181518152 -3.09302590999100
 1 -8.97052623592359 -4.78391494709471 -1.45373760176018
 1 -7.75625083968397 -5.63739375197520 -0.44787443934393
 1 -8.94434171417142 -4.94681664286429  0.52005661516152
 1 -3.27076665806581 -3.49575330023002 -0.39465777257726
 1  3.03938555395540 -3.29106638043804 -1.67174289138914
 1  2.27055134393439 -1.78270418541854 -2.64288452375237
 1  3.84459178687869 -0.62377512591259 -0.14611100950095
 1  4.71023408040804 -1.41947542004200 -4.04571468646865
 1  6.59034261266127 -2.15215389078908 -3.72373359725973
 1  5.14135796319632 -3.04316693099310 -2.99466365016502
 1  6.25416583848385  0.40382571997200 -2.22905552275227
 1  5.84417952735273  0.53764931273127 -0.62242650605060
 1  7.04267544644464 -1.77336553365337 -0.17739601800180
 1  7.90796619501950 -1.57623641394139 -1.73728320422042
 1  8.71527365876588  0.97104769956996 -1.53066585188519
 1  8.28380687878788  1.26471165936594  0.24769047744774
 1  10.08123057015702 -1.00737818151815 -0.97347450505051
 1  8.69544178847885 -1.65643445914591  1.27286564736474
 1  10.39048511791179 -1.60630451165117  1.78625051645164
 1  9.03356656825683 -0.44476569896990  2.18543984908491
 1  10.84901853965397  0.82673543344334 -0.61852902450245
 1  10.87859760636064  1.14108298389839  1.01294517481748
 1  12.20490803300330 -0.97478991849185  0.93170685398540
 1  12.22909506350635 -0.73790201080108 -0.83363636113611
 1  13.43399826982698  1.39720926592659 -0.55938484308431
 1  13.16498854365437  1.25160941224122  1.33764955435544
 1  15.25919734553455 -0.27465498149815 -0.52353054425443
 1  14.55603550345035  0.10628102360236  2.65881865486549
 1  14.32412968646865 -1.58446611851185  1.75908340644064
 1  15.95887292039204 -1.19859344244424  1.77359383708371
 1  15.42784391929193  1.89446944034403 -0.51404137883788
 1  15.89496352895290  1.82303183868387  1.36816513971397
 1  17.70878219331933 -0.09690652005201  1.54120430713071
 1  17.39586711091109 -0.09039086988699 -0.47176855425543
 1  18.31526653375338  2.20161670947095 -0.84722771107111
 1  18.44147414351435  2.24099800670067  0.90548721922192
 1  20.01249381058106  0.31768461466147  0.68124147494749
 1  19.80414873287329  1.38514356395639 -2.20720284548455
 1  21.26461075107511  0.74469266746675 -1.79360349374938
 1  19.61822454945495 -0.42101982038204 -1.71372944764476
 1  20.99477625622562  3.16725630473047  0.63430418401840
 1  22.05758349864987  2.05290187288729 -0.25934864986499
 1  20.31819847274727  2.91595908310831 -0.87573236953695
 1 -0.33262888798880 -3.92635538493849  2.63188153615361
 1 -1.35450513151315 -4.48601587528753  3.70877151375138
 1 -1.05480949424942 -2.87717619471947  3.35750990419042
 8 -11.86507488178818  3.61830662986299 -1.15916773047305
 1 -13.01199171067107  1.94221546164616 -1.41051165616562

