%nproc=4
%Mem=2GB
# td=(NStates=1) iop(3/107=0140000000,3/108=0140000000) iop(3/107=0140000000,3/108=0140000000) CAM-B3LYP/6-31G(d,p) 

TD

0 1
12 -6.69554212631263  0.58722786688669  0.00892851235124
 6 -4.63551065756576 -2.04523294509451  0.45224550155016
 6 -4.18431024642464  2.77107874097410  0.89820270187019
 6 -8.94165687038704  3.28360238433843 -0.34217371907191
 6 -9.48797689528953 -1.69676270587059 -0.67269732843284
 7 -4.61649672157216  0.39964936263626  0.53335236733673
 6 -3.95992325792579 -0.93221292809281  0.68229878527853
 6 -2.53502692129213 -0.79448120732073  1.10808287058706
 6 -2.29227919371937  0.84930507930793  1.25401756425643
 6 -3.81956821972197  1.37643772897290  0.91660643534353
 6 -2.14591087678768  0.95491728762876  2.84613917671767
 6 -1.55359410781078 -1.40971353475348 -0.03721239493949
 6 -0.05786390469047 -1.43889559615962  0.60843991749175
 6  0.81950302950295 -1.83042027892789 -0.55156333013301
 8  0.79400946904690 -1.54003661616162 -1.66204719491949
 8  1.97130741734173 -2.40265056365637 -0.01809673217322
 7 -6.68704044624462  2.53309367936794  0.39460320822082
 6 -5.43447400830083  3.14948359155916  0.73442973917392
 6 -5.52218643384338  4.77942762756276  0.69352422102210
 6 -6.90542125552555  4.93093918441844  0.34575115841584
 6 -7.61545324922492  3.56791559996000  0.10129496089609
 6 -4.39155407570757  5.78248567906791  1.05093276127613
 6 -7.68944050535054  6.24233115321532  0.21468099179918
 8 -7.03062697889789  7.25958757535754  0.34289214601460
 7 -8.75297885138514  0.89629048824882 -0.44850749984999
 6 -9.42231590399040  2.06084081938194 -0.52269332163216
 6 -10.76357298759876  1.82917278837884 -0.91544732593259
 6 -10.93476783428343  0.31693259765977 -0.92610346584658
 6 -9.58928059135913 -0.20810897409741 -0.65128720542054
 6 -11.83124990029003  2.70511670477048 -1.22289694049405
 6 -12.26418953945394 -0.25756931923192 -1.37058519221922
 6 -12.47972483458346 -0.20422258745875 -2.78273106780678
 7 -6.91790827372737 -1.39058161946195 -0.16318896339634
 6 -8.03685634723472 -2.12115211191119 -0.46006920492049
 6 -7.57748533363336 -3.68109543194319 -0.57025803590359
 6 -6.40472609380938 -3.55591475237524 -0.29930819141914
 6 -5.89338562726273 -2.18850766526653  0.04681086538654
 6 -8.60412893639364 -4.63017039483948 -0.89584240014001
 6 -5.14787099159916 -4.38427422552255 -0.03144511881188
 8 -4.87927967666767 -5.58451899019902 -0.23183267666767
 6 -4.03947767316732 -3.52131269046905  0.41784643184318
 6 -3.69013252415242 -3.81496767226723  1.65729544254425
 8 -4.33943918401840 -4.23109984478448  2.65277394719472
 8 -2.27715939083908 -3.90941724702470  1.74069400860086
 6 -1.72132065416542 -4.14131922202220  3.08886331153115
 6  3.15518741154115 -2.67073225012501 -0.95816706080608
 6  4.07990175757576 -1.62855985708571 -0.59987551985198
 6  5.01009176457646 -1.29064593599360 -1.41832803440344
 6  5.27021100490049 -1.85735887058706 -2.76566354855486
 6  6.00763458805881 -0.23150080298030 -1.13350990949095
 6  7.39624831883188 -0.85878166026603 -0.73162990029003
 6  8.49314187448745  0.31866750135014 -0.47774625512551
 6  9.90413350275028 -0.38180510081008  0.20804249854986
 6  9.52640015631563 -0.94593340804080  1.82150651945195
 6  11.01287361736174  0.72033688788879  0.26482132053205
 6  12.35646091659166  0.02685399259926  0.35952426362636
 6  13.30653219581958  1.21758903360336  0.19969286768677
 6  14.77870420562056  0.53273655175518  0.37497215931593
 6  15.04729971807181  0.30355807530753  1.88076800080008
 6  15.88267789618962  1.78281318331833 -0.06614340904090
 6  17.21526100420042  0.95265048944895 -0.26132300620062
 6  18.30109965736574  2.06428361956196 -0.49271941874187
 6  19.71057325842584  1.37029552435244 -0.68007809150915
 6  19.65906570787079  0.59558498879888 -1.99073486468647
 6  20.79369653855386  2.51099251725172 -0.74558965486549
 1 -3.32254289258926  3.38147939893989  1.11689109080908
 1 -9.52269625212521  4.07942702780278 -0.72540617451745
 1 -9.88616110771077 -2.08381878117812 -1.10664349024902
 1 -2.36628914571457 -1.67503512131213  2.08434848314832
 1 -1.34622396099610  1.47602807900790  1.00029648304830
 1 -1.44418580228023  0.39619793419342  2.83799451055106
 1 -2.18759693359336  1.90108868526853  3.20415653345334
 1 -2.91992432493249  0.60139802510251  3.03758962806281
 1 -1.94543356365637 -2.58844011701170 -0.10842862966297
 1 -1.85226039503950 -0.60126159905991 -1.04801459225923
 1  0.37121511981198 -0.36037747104711  1.01032689788979
 1  0.02303858405841 -2.01639797359736  1.58505873797380
 1 -3.59674420482048  5.90012784068407  0.00639559725973
 1 -5.08406868746875  6.69709238513851  1.06165307140714
 1 -3.76757778597860  5.37282624362436  1.92338011031103
 1 -8.77613062716272  5.99037414661466  0.27634125832583
 1 -12.41608116171617 -0.88255912341234 -0.94367879507951
 1 -13.24335055005500  0.07717411721172 -0.97767540394039
 1 -13.64416223932393 -0.95246736213621 -3.07368448554855
 1 -12.84209117291729  0.76966438793879 -3.06795896539654
 1 -11.62342916731673 -0.83105642264227 -3.43080968836884
 1 -9.31748093139314 -4.70377693329333 -2.13877610561056
 1 -7.80529574417442 -5.44794480708071 -1.06777642954295
 1 -9.08775605560556 -4.87836979817982 -0.05928131863186
 1 -3.09643922532253 -3.60745447034703 -0.38905721252125
 1  3.20617223262326 -3.78136541034103 -0.54429014611461
 1  2.97993228202820 -2.55765168016802 -1.91839207450745
 1  3.86499382708271 -0.94405715411541  0.19839344094409
 1  4.22208526552655 -1.91172464496450 -3.40233034803480
 1  5.81876545494549 -1.15507418281828 -3.49676089999000
 1  5.46411023842384 -2.96150876517652 -2.79263344714471
 1  6.26160658255826  0.52864820222022 -1.98787140434043
 1  5.83644875427543  0.36014156195620 -0.26665092849285
 1  7.47697887678768 -1.59411760886089  0.03699542114211
 1  8.17374277267727 -1.53375216551655 -1.55238471437144
 1  8.83878601000100  0.84048464326433 -1.48490127542754
 1  7.95153365146515  0.95006019421942  0.62852856125613
 1  10.27264971207121 -1.35859330303030 -0.37805496309631
 1  8.91384362866287 -1.81690050575057  1.48840720152015
 1  10.52121819121912 -1.33041692289229  2.19492138353835
 1  8.91307451905191 -0.13020424282428  2.55657696279628
 1  10.79591322912291  1.36034879477948 -0.88578575017502
 1  10.51518126472647  1.52936181178118  1.26420030033003
 1  12.83831137333733 -0.42361480098010  1.43900758405841
 1  12.62246440044004 -0.92633085368537 -0.39601259875988
 1  13.34285915591559  1.73858340334033 -0.63090199479948
 1  13.39277132193219  2.07237148844884  0.67377316671667
 1  14.85346677247725 -0.32891040704070 -0.22448063926393
 1  15.56934683458346  1.32121251675168  2.52723549654965
 1  14.41510878437844 -0.36749442134213  2.65656315441544
 1  16.07832486558656  0.05110152705271  2.07429390709071
 1  15.52962409730973  2.23600359375938 -1.08262823752375
 1  15.93227726032603  2.47790732623262  0.90737906110611
 1  17.46345766086609  0.57841101170117  0.75227541424142
 1  17.13492101630163  0.63792196139614 -1.16159753715371
 1  18.29140414751475  2.54332087988799 -1.49857284558456
 1  18.37255725182519  2.88093200010001  0.42212888338834
 1  20.02078463966397  0.57566041224122  0.03477682848285
 1  19.47241555955596  1.18266331593159 -3.10420254545455
 1  20.68801309130913  0.08330652885288 -2.02948708210821
 1  19.18227095409541 -0.26360407880788 -1.84246232093209
 1  20.87514429302930  2.96885646474647  0.22234298789879
 1  21.72807054735474  2.18987557025702 -1.00743345834583
 1  20.28617527042704  3.21476896409641 -1.48707350365037
 1 -0.53163878897890 -4.15196794619462  2.84252260026003
 1 -2.46383606460646 -5.16274354805481  3.34201483808381
 1 -1.82881689498950 -2.94629310641064  3.69209336253625
 8 -11.62158053235324  3.95343014221422 -0.84275608930893
 1 -13.01377188868887  2.24091533163316 -1.76768737373737

