%nproc=4
%Mem=4GB
# td=(NStates=1) iop(3/107=0140000000,3/108=0140000000) iop(3/107=0140000000,3/108=0140000000) CAM-B3LYP/6-31G(d,p) 

TD

0 1
12 -5.69692119871987  1.13929880418042  0.25619422462246
 6 -5.09863025022502 -2.10689915321532 -0.37948481528153
 6 -3.25682447154715  1.12082236703670  2.67767314061406
 6 -6.21909070477048  4.41021428562856  0.71903211201120
 6 -7.94369013611361  1.23004385508551 -2.50414808830883
 7 -4.52874712801280 -0.27855604740474  1.16907824662466
 6 -4.36241976947695 -1.54858856045605  0.62993534313431
 6 -3.33611673617362 -2.42781608440844  1.42172653635364
 6 -2.87260043104310 -1.34560745164516  2.54695125122512
 6 -3.61784921232123 -0.08869149684968  2.16782136733673
 6 -3.35083812321232 -1.82810625202520  3.84763746314631
 6 -2.08576376957696 -2.76239364866487  0.56236154165417
 6 -0.97226887038704 -3.54256183678368  1.36557014501450
 6  0.23424852535254 -3.73577741844184  0.48933712841284
 8  0.50565062936294 -3.30072738633863 -0.55804203840384
 8  0.99801664736474 -4.68301791909191  1.26379098639864
 7 -5.02114293059306  2.53458283518352  1.55089532123212
 6 -3.98818090789079  2.36621404310431  2.43232383568357
 6 -3.67653715741574  3.59551805400540  3.07002755895590
 6 -4.45186573927393  4.52226375467547  2.55328459975998
 6 -5.29325542974297  3.82555065026503  1.57020311261126
 6 -2.67656301940194  3.69291666746675  4.17698188758876
 6 -4.52813934453445  5.88007542804280  2.90181968676868
 8 -3.81882193019302  6.42615050305030  3.80213411331133
 7 -6.86897069696970  2.60168006380638 -0.77211886818682
 6 -6.95909862466247  3.97643726092609 -0.36914860356036
 6 -7.94298948534853  4.65305203000300 -1.20763487298730
 6 -8.49442889618962  3.72203913381338 -2.01508045244524
 6 -7.80356924742474  2.46798280708071 -1.75005095159516
 6 -8.26578956985699  6.00394030343034 -1.15637514631463
 6 -9.48266262956296  3.86670706890689 -3.15953058585859
 6 -8.74966642034203  4.03784193039304 -4.48916532053205
 7 -6.29432785178518 -0.12567758545855 -1.17505259725973
 6 -7.39053858345835 -0.02005807440744 -2.07334154485449
 6 -7.58868637583758 -1.37832953655366 -2.69378190079008
 6 -6.67773732253225 -2.15986555835584 -2.03489965566557
 6 -5.94169258465847 -1.42218578367837 -1.09078520892089
 6 -8.56843230103010 -1.76285641164116 -3.63123001920192
 6 -6.14322798989899 -3.48528411231123 -1.94305786088609
 8 -6.57929232473247 -4.55169286768677 -2.45868213331333
 6 -5.09653821592159 -3.58960701330133 -0.86539885968597
 6 -5.49633711111111 -4.55629107020702  0.23956762856286
 8 -5.85134090569057 -4.47077608570857  1.32962932633263
 8 -5.04168386658666 -5.84258545494549 -0.27869101370137
 6 -5.46261382558256 -6.98774062736274  0.50687251705171
 6  2.22012298549855 -4.92547366756676  0.39654360876088
 6  3.36232076707671 -4.00331049194920  0.88573647344734
 6  3.93455284548455 -3.16420929102910  0.09815345034503
 6  3.75506984588459 -2.93118806010601 -1.35723522802280
 6  5.26534296009601 -2.40823587118712  0.70083388218822
 6  6.53352822412241 -2.63367629282928  0.04306577397740
 6  7.65583090669067 -1.81840119561956  0.72777846834683
 6  9.06085690699070 -1.97659249284929  0.01397361486149
 6  9.54538091979198 -3.44866550695069  0.35168171047105
 6  10.06487706680668 -0.90894113151315  0.52875539103910
 6  11.30995829822982 -0.84538414531453 -0.26484525072507
 6  12.24080176877688  0.27543217071707  0.24287113471347
 6  13.45591804760476  0.52383725362536 -0.55446020922092
 6  14.49049734873487 -0.63232263486349 -0.34415856675668
 6  14.22747868746875  1.85566173777378 -0.20927018181818
 6  15.42406659705970  2.25513354155416 -1.05319031403140
 6  16.14941752615261  3.47243199599960 -0.59537015021502
 6  17.38822407150715  3.93396123772377 -1.35850978617862
 6  17.14665725542554  4.00917580928093 -2.88107033123312
 6  17.97729713581358  5.15531079637964 -0.66258571747175
 1 -2.38792451525152  1.50144441984198  3.28928939733973
 1 -6.44405238403840  5.43074845524552  0.74980397209721
 1 -8.79688009520952  0.91754205710571 -3.28479395819582
 1 -3.80735179998000 -3.09635495089509  1.90413847464746
 1 -1.85430255415542 -1.23617127872787  2.52833410951095
 1 -2.93122290139014 -2.84317747894789  4.13658720272027
 1 -3.10432122482248 -0.99646955135513  4.60870290009001
 1 -4.53385589728973 -1.75782486338634  4.05374932543254
 1 -2.36175148884888 -3.33911342864286 -0.22395301910191
 1 -1.61295912831283 -1.85484460076008  0.24884300590059
 1 -0.74720015351535 -3.06673796939694  2.39115333403340
 1 -1.29332405400540 -4.45019215041504  1.76456825482548
 1 -1.54456457025703  3.46949647404740  3.90512642234223
 1 -2.58617960806081  4.73886109210921  4.71343760146015
 1 -3.06656965196520  2.89388038553855  4.86714172017202
 1 -5.22761582548255  6.67033122752275  2.31988731013101
 1 -10.58408754225423  3.23111376847685 -3.13017626932693
 1 -10.26539733763376  4.88362220632063 -3.04453474417442
 1 -9.56167596739674  4.27322573657366 -5.17582278457846
 1 -7.96289579897990  4.91543128852885 -4.28094804980498
 1 -8.17731758075807  3.15224458325833 -4.51338126292629
 1 -8.65637322692269 -1.12378292119212 -4.73771476977698
 1 -8.51029201220122 -2.88116152125212 -3.87859049604960
 1 -9.59115919541954 -1.57387421082108 -3.33554046074608
 1 -4.20867822522252 -4.02693752035204 -1.50965425232523
 1  2.42871400440044 -6.03157110011001  0.44243019991999
 1  2.03731447484748 -4.76057303340334 -0.58001145074507
 1  3.57978010031003 -4.02602188398840  1.94138914651465
 1  2.88383337003700 -3.44369999109911 -1.78387092809281
 1  3.66544115741574 -1.78992255155516 -1.43665613611361
 1  4.66328850285029 -3.14120784998500 -2.19712863876388
 1  4.79662970387039 -1.30238666266627  0.58237012051205
 1  5.32100062736274 -2.53964559695969  1.90751563186319
 1  6.77375490219022 -3.61965515761576  0.04132201620162
 1  6.41730189058906 -2.33819142814282 -0.99028962446245
 1  7.43608253955396 -0.72818614371437  0.63498074357436
 1  7.79615171807181 -2.09405598869887  1.91492587788779
 1  9.10788489778978 -1.80539881508151 -0.98888222632263
 1  9.05442996169617 -4.19039781118112  0.02856906450645
 1  10.66831617241724 -3.70450465256526  0.11854174067407
 1  9.48994805620562 -3.71307239873987  1.39013945664566
 1  9.70805995659566  0.03715944214421  0.26856222002200
 1  10.30661075857586 -1.15249178307831  1.51805134513451
 1  11.91872701400140 -1.84732476437644 -0.42852722592259
 1  11.12888897559756 -0.67489039393939 -1.39600093369337
 1  11.61803283678368  1.06803123232323  0.12488293309331
 1  12.28028285158516  0.00927211861186  1.38986726692669
 1  13.12984978567857  0.49641407370737 -1.75491773047305
 1  14.57838717701770 -0.83396160886089  0.71766744674467
 1  13.96995256625662 -1.72813182948295 -0.51773809530953
 1  15.38851984038404 -0.52003520172017 -0.93309020152015
 1  13.48584677887789  2.58958357745775 -0.26686847454745
 1  14.67747444774477  1.96448673787379  0.81768898279828
 1  16.34431608740874  1.56941555425543 -1.10650714141414
 1  14.98811439483949  2.12714662746275 -2.02261364106411
 1  15.34994639923992  4.27213259125913 -0.51421341944194
 1  16.52255502560256  3.39379602100210  0.31688158855886
 1  18.25826950835084  3.04768625982598 -1.31431051065107
 1  16.43169388978898  4.76433296219622 -3.15913827362736
 1  18.09329525302530  4.11250076337634 -3.51207581268127
 1  16.54282448264827  3.20928199819982 -3.29788782338234
 1  17.77208325552555  5.02408362586259  0.35489715391539
 1  19.11109863216322  5.12964711691169 -1.06438335273527
 1  17.52898444934493  6.14973447654766 -1.26395045634563
 1 -5.21851715311531 -7.83912334543454 -0.09680321802180
 1 -6.49114354465447 -6.99547663426343  0.55034854235424
 1 -4.76445461406141 -6.94837641324133  1.32452690929093
 8 -7.53311090269027  6.87722422322232 -0.62430021402140
 1 -9.10923922102210  6.42569821472147 -1.99935561836184

