%nproc=4
%Mem=4GB
# td=(NStates=1) iop(3/107=0140000000,3/108=0140000000) iop(3/107=0140000000,3/108=0140000000) CAM-B3LYP/6-31G(d,p) 

TD

0 1
12 -5.55272677927793  1.21404627892789  0.18719732493249
 6 -4.97773816101610 -2.20237870117012 -0.33704057085709
 6 -3.49780856995700  1.14679496429643  2.85772114541454
 6 -6.14455325102510  4.67064032823282  0.59000920972097
 6 -8.12758852595259  1.12973382408241 -2.28427610111011
 7 -4.43814806810681 -0.36975516731673  1.13432477127713
 6 -4.24042757025703 -1.65072877447745  0.68547089668967
 6 -3.12281540604060 -2.30953425622562  1.47162152585259
 6 -2.99374254525453 -1.36280917181718  2.64275083118312
 6 -3.66679410681068 -0.12371499919992  2.20993557875788
 6 -3.60569360876088 -1.90011345274527  3.98324102350235
 6 -1.93228842204220 -2.61865927522752  0.63230853635364
 6 -0.95132677617762 -3.50749833043304  1.36998058605861
 6  0.30262536303630 -3.88013185388539  0.61302949764977
 8  0.48481854615462 -3.49725703930393 -0.51107734193419
 8  1.05653249894989 -4.76882649994999  1.22662727002700
 7 -4.99583039933993  2.63273265016502  1.56232646434643
 6 -4.05643773357336  2.46965438713871  2.42762336563656
 6 -3.73966347004701  3.69231773397340  3.14150470667067
 6 -4.44060461316132  4.69802133043304  2.53113238453845
 6 -5.23028913311331  3.98238633383338  1.48771486378638
 6 -2.77521288438844  3.82281965776578  4.31725591499150
 6 -4.49255578617862  6.08430585108511  2.76260576537654
 8 -4.01557160516052  6.59206709470947  3.78921282118212
 7 -6.95381918181818  2.61661155695570 -0.72463411971197
 6 -6.96144885968597  3.94877449464947 -0.40384207290729
 6 -7.93580876727673  4.58134485928593 -1.22467657715772
 6 -8.60449990329033  3.63981091099110 -2.00579952435243
 6 -7.83776266676668  2.40517652645265 -1.79864581108111
 6 -8.30485347624763  6.06293620302030 -1.15483499229923
 6 -9.50645500880088  3.82552295049505 -3.24421905470547
 6 -8.77376883058306  4.13322146834683 -4.51516792079208
 7 -6.47153557255726 -0.14793981168117 -0.98612370437044
 6 -7.47320685028503 -0.01765783438344 -2.01925613631363
 6 -7.64063157035704 -1.31109281288129 -2.58488101070107
 6 -6.67245679447945 -2.15492506430643 -2.03356952265227
 6 -5.96098451385138 -1.48123168826883 -1.05594172457246
 6 -8.64184964276428 -1.74703482948295 -3.67609450565057
 6 -6.20711437853785 -3.57106269016902 -2.04546810191019
 8 -6.63763815931593 -4.51583928232823 -2.56043230833083
 6 -5.01893045514551 -3.58914696729673 -0.93441576137614
 6 -5.30221769916992 -4.68773421452145  0.04946861866187
 8 -5.61230700230023 -4.61025003310331  1.24038040144014
 8 -4.89931963016302 -5.85579677607761 -0.55063820842084
 6 -5.20956852105211 -6.97302915621562  0.35428725852585
 6  2.39864083728373 -4.96048716891689  0.58494244864486
 6  3.43824835983598 -4.13878403930393  1.04731263106311
 6  4.07411680188019 -3.19496236633663  0.22899653465347
 6  3.60074441334133 -3.05295023632363 -1.27188669316932
 6  5.13779020482048 -2.30900594819482  0.78714251305130
 6  6.43958883018302 -2.47796072127213  0.02953442084208
 6  7.63529885348535 -1.73047240274027  0.61759745024502
 6  8.94216503780378 -1.94894972857286 -0.00493827632763
 6  9.59842622432243 -3.34557519791979  0.25640218251825
 6  10.01904248334833 -0.89756999439944  0.32070458595860
 6  11.46624392679268 -0.90067967486749 -0.26891565776578
 6  12.27923561216122  0.24710933843384  0.13251009860986
 6  13.54436689248925  0.50416528642864 -0.69350411361136
 6  14.49632793179318 -0.73927332993299 -0.65408955985599
 6  14.24801074067407  1.72152832443244 -0.14907416221622
 6  15.49683387378738  2.15523355155516 -0.92952794779478
 6  16.03626621102110  3.46171092389239 -0.57938855205521
 6  17.33191844094409  3.77987582918292 -1.25104904010401
 6  17.32864545424543  3.93947883958396 -2.80912313651365
 6  17.95335474157416  5.12534780008001 -0.70095955485549
 1 -2.80267599039904  1.05864013941394  3.70576104450445
 1 -6.36003398219822  5.60888626902690  0.71276026772677
 1 -9.03409381658166  0.98838914181418 -3.08527400620062
 1 -3.47267833263326 -3.20903621902190  1.95497355815582
 1 -1.95971309520952 -1.23176083768377  3.07369864596460
 1 -3.16970674977498 -2.71633479467947  4.21370491449145
 1 -3.73556434913491 -1.24045394979498  4.87723975377538
 1 -4.68629114081408 -2.21228030893089  3.74655860636064
 1 -2.36626193989399 -3.17514703200320 -0.25254587838784
 1 -1.50815864826483 -1.67805692199220  0.38515663726373
 1 -0.55504093759376 -2.97014831043104  2.18313253195320
 1 -1.51708643024302 -4.21721885308531  1.89390118811881
 1 -1.80375048884888  3.48425795019502  4.12802871257126
 1 -2.95632662276228  4.79469667566757  4.56082233993399
 1 -3.18662165716572  3.15562656015602  5.13629863586359
 1 -4.74730779467947  6.93395759015902  1.82999832123212
 1 -9.99369850335033  2.87133779087909 -3.59395264696470
 1 -10.24386518441844  4.63580742484248 -2.84960525122512
 1 -9.46431623142314  4.08094650865087 -5.49277447974797
 1 -8.12281179057906  4.85110485588559 -4.59370932593259
 1 -8.38913876287629  3.14041340014001 -4.56294621942194
 1 -8.62221981158116 -1.18986952985298 -4.49658065636564
 1 -8.48475945894590 -2.70610401550155 -4.08654129112911
 1 -9.71038111761176 -1.79994681808181 -3.32001890859086
 1 -4.16701405880588 -3.88284311091109 -1.65125841274127
 1  2.64324545754575 -6.05279322232223  1.04480043694369
 1  2.35237598099810 -5.25202217831783 -0.46864031363136
 1  3.77355947824783 -4.22865214701470  2.15243025062506
 1  2.49871485818582 -3.21012663376338 -1.23701624262426
 1  3.70137475077508 -2.17706126542654 -1.62473494399440
 1  4.17350952495249 -3.58080180938094 -1.89392831873187
 1  5.01283132403240 -1.32688911291129  0.49646152965297
 1  5.30973950125012 -2.49362099449945  1.74069895019502
 1  6.70847837453745 -3.42794598669867 -0.02040415641564
 1  6.36679684008401 -2.04064167316732 -1.07626822232223
 1  7.19584851615162 -0.62634595969597  0.55773301880188
 1  7.71118322122212 -1.88471505460546  1.58259264456446
 1  8.80321443074307 -1.85544381958196 -0.98920225832583
 1  9.12750726942694 -4.30796956835684 -0.54162795519552
 1  10.56053539433943 -3.48315251735174 -0.01457157065707
 1  9.49521858325832 -3.68954004550455  1.24456489918992
 1  9.51002015261526  0.10394612081208  0.05897126092609
 1  9.95393549104910 -0.95942247614761  1.41982152215221
 1  12.12673781508151 -1.85822585448545 -0.07589196239624
 1  11.30211629832983 -0.85735864076408 -1.33054438803880
 1  11.54412544604460  1.15911034023402 -0.12701225642564
 1  12.56945176847685  0.07339853125313  1.34928320852085
 1  13.21008780948095  0.70335476777678 -1.77538977767777
 1  14.71314065236523 -0.81916012871287  0.25854153415342
 1  14.14542011301130 -1.67718673497350 -0.95353167466747
 1  15.26809779817982 -0.81479467766777 -1.21158805130513
 1  13.54356255045505  2.46111073017302 -0.10650243794379
 1  14.39104580488049  1.62019230843084  0.89369658355836
 1  16.29918157395739  1.43911252395240 -0.62217870857086
 1  15.29017460086009  2.10705461826183 -1.92799417911791
 1  15.21469287388739  4.16785216321632 -0.82334433253325
 1  16.31397416751675  3.36311295269527  0.71132103250325
 1  18.20899458085809  3.16376786798680 -1.04805388498850
 1  16.79200992139214  4.97060358925893 -2.84951731153115
 1  18.27216313981398  4.37048656195620 -3.02746735183518
 1  16.72558275847585  3.04940601060106 -3.30329836443644
 1  18.27433348054806  5.26706792429243  0.22583424762476
 1  18.96957447974798  5.48420257245725 -1.15973288768877
 1  17.25817736863686  5.95946544964496 -1.05868993029303
 1 -4.65517081848185 -7.80877031013101 -0.16334987268727
 1 -6.21568599889989 -7.04822190879088  0.31724523202320
 1 -4.81636980558056 -6.87048862446245  1.33062751935194
 8 -7.73667125872587  6.94344084488449 -0.49994777877788
 1 -9.25716401350135  6.22175782068207 -1.70198588138814

