%nproc=4
%Mem=2GB
# td=(NStates=1) iop(3/107=0140000000,3/108=0140000000) iop(3/107=0140000000,3/108=0140000000) CAM-B3LYP/6-31G(d,p) 

TD

0 1
12 -6.71803437553755  0.59572871697170  0.21847946744674
 6 -4.65745285178518 -2.09625804760476  0.73784406140614
 6 -4.07409922532253  2.74368600170017  1.04723760536054
 6 -8.86259896459646  3.36053007710771 -0.21087058875888
 6 -9.35066316391639 -1.75879890949095 -0.75471553025303
 7 -4.65211028292829  0.25492489018902  0.81489052115212
 6 -3.94298156375638 -0.85471517831783  0.85105566096610
 6 -2.47915133373337 -0.58232999219922  1.20300236253625
 6 -2.32131209700970  0.81877202600260  1.59965212771277
 6 -3.83766002890289  1.40121020622062  1.02687746244624
 6 -2.25780206590659  1.21373316921692  3.10061462426243
 6 -1.52134088248825 -1.15781834523452  0.13046437273727
 6 -0.14883300160016 -1.44591629822982  0.47102617611761
 6  0.76418749794980 -1.49982721962196 -0.57561573537354
 8  0.64983505160516 -0.95497811031103 -1.65956694689469
 8  1.82958324492449 -2.18765906450645 -0.17308223072307
 7 -6.59859160136014  2.57390776077608  0.28788253615362
 6 -5.35463602450245  3.37227587078708  0.69661595779578
 6 -5.60912512771277  4.80477016181618  0.80643551215122
 6 -6.94477519091909  4.91761785228523  0.27786436973697
 6 -7.57599930383038  3.49817862626263  0.10450528192819
 6 -4.54826974727473  5.76134356485649  0.88510617861786
 6 -7.68530009130913  6.13128004810481  0.29529905360536
 8 -7.02579649584959  7.13401501810181  0.06536439323932
 7 -8.59216276977698  0.74637549674968 -0.21531418051805
 6 -9.25713938633863  1.90519525482548 -0.56759781208121
 6 -10.60350698099810  1.77766763786379 -1.00266604780478
 6 -10.66725108260826  0.43039394379438 -1.12766362186219
 6 -9.44208587188719 -0.22910107330733 -0.73908598529853
 6 -11.68400517581758  2.69783597669767 -1.15779042984298
 6 -12.00321344184418 -0.35824938723872 -1.40658879257926
 6 -12.15290215231523 -0.44978714391439 -3.05044783948395
 7 -7.03805028792879 -1.37167972927293 -0.17041968646865
 6 -8.06547920952095 -2.16027602430243 -0.59573277127713
 6 -7.55297288238824 -3.61984930733073 -0.54043505360536
 6 -6.28709433063306 -3.69664882578258 -0.15440370097010
 6 -5.95077136583658 -2.22759157365737  0.19897608190819
 6 -8.51875039853985 -4.77438481628163 -0.73058587448745
 6 -5.03719992449245 -4.51904770287029  0.00405843154315
 8 -4.95831758045805 -5.67295783408341 -0.31913140654065
 6 -3.99101282668267 -3.55334589378938  0.58136278347835
 6 -3.48784229512951 -3.86811298679868  1.78734844784478
 8 -4.18391363146315 -4.30607734253425  2.78930760056006
 8 -2.19193086798680 -3.83179948524853  1.78873881308131
 6 -1.35702422452245 -4.23161825192519  2.88130255545555
 6  3.00999289208921 -2.53512868976898 -0.92922416651665
 6  3.99921368876888 -1.60282728382838 -0.71448698099810
 6  4.87210796619662 -1.30036690809081 -1.69711591319132
 6  4.91508549234924 -1.71765490019002 -3.19191617381738
 6  6.01072489708971 -0.24380203310331 -1.44676123462346
 6  7.49882857685769 -0.91358714081408 -1.07300403770377
 6  8.21411397169717  0.31849748434843 -0.72015049554956
 6  9.69332242164216 -0.49031595189519 -0.04923322902290
 6  9.38331584788479 -1.06283509820982  1.49506387518752
 6  10.80711304130413  0.70674552875288  0.13724856325633
 6  12.17011228172817  0.19972127932793  0.17949626082608
 6  13.36258780138014  1.18276555125512  0.20367326572657
 6  14.66545288048805  0.53056633473347  0.47386204830483
 6  14.82796778487849  0.08145586508651  2.11610153415342
 6  15.67118674707471  1.53843874587459  0.05738894419442
 6  17.25023450155015  0.92343756815682 -0.01638851275128
 6  18.36019556695670  2.01435862706271 -0.33571371817182
 6  19.54531673277328  1.33769226402640 -0.57679776347635
 6  19.67276707800780  0.70405583588359 -2.00227601880188
 6  20.76734390329033  2.56545796379638 -0.56257135303530
 1 -3.27367800610061  3.46669792079208  1.16009541124112
 1 -9.51874585708571  4.11585067016702 -0.57305093899390
 1 -10.14925741734173 -2.76037643694369 -1.01535436133613
 1 -2.18945146194619 -1.07807542534253  1.96013606190619
 1 -1.47492683128313  1.21811228742874  1.14461091449145
 1 -1.12820420412041  0.72014032843284  3.54146485758576
 1 -2.31516969086909  2.42465104150415  3.02291840964096
 1 -2.84159649214922  0.27127501280128  3.42165803490349
 1 -2.30331935223522 -2.06820809380938 -0.39145693249325
 1 -1.33885905490549 -0.68141961486149 -1.10345013581358
 1  0.14394239253925 -0.80350178347835  1.18615448064807
 1  0.13086936713671 -2.38362469626963  1.31266149824983
 1 -3.84559909030903  5.48032586048605  0.00872583028303
 1 -5.07206748734874  6.64303697959796  1.15510241634163
 1 -4.07832886108611  5.98383734473447  1.72480025232523
 1 -8.81107412151215  6.02082719191919  0.32748637283728
 1 -12.07928748234824 -1.27302817031703 -0.62840726792679
 1 -12.64225044004400  0.18673507330733 -0.65499313571357
 1 -13.38094591769177 -0.31444355975598 -3.36677379447945
 1 -12.02776974077408  0.69304672617262 -3.79649181868187
 1 -11.55202202660266 -1.13819713671367 -3.57490409780978
 1 -8.59220840414041 -4.62261881748175 -1.97369959795980
 1 -7.77342255685569 -5.64182419501950 -0.54803445534553
 1 -9.34325160516052 -5.05148710991099  0.21765637513751
 1 -3.18738832023202 -3.61595532043204 -0.12839114591459
 1  3.16420803620362 -3.63811108490849 -0.73569928702870
 1  2.80770505930593 -2.67586350135013 -1.87183741904190
 1  4.09050637833783 -0.87375012341234  0.00859446104610
 1  3.95582863986399 -0.93609708220822 -3.62713282828283
 1  6.21063464186419 -1.69764844024402 -3.23139436333633
 1  4.47291111851185 -3.01381399569957 -3.33579776357636
 1  6.16137655955596  0.63879921732173 -2.44646726392639
 1  5.76228133753375  0.62645819361936 -0.68053231663166
 1  7.32201338023802 -1.74152234933493 -0.44588286668667
 1  7.46541193959396 -1.72607139743974 -1.97821729762976
 1  8.71705383678368  0.93829442424242 -1.63637642294229
 1  7.93193169126913  0.91992718091809 -0.15248954055406
 1  9.97722016911691 -1.66644408810881 -0.50025718331833
 1  8.55827807210721 -1.50900971667167  1.36401476227623
 1  10.29200526992699 -1.34805868706871  1.75276716811681
 1  9.30552376397640 -0.40470169256926  2.52073337843784
 1  10.44497813561356  1.13653641354135 -0.90786795839584
 1  10.64077382398240  1.50156903250325  0.98039191949195
 1  12.16976451865187 -0.63820626012601  0.96408009130913
 1  12.35319747374738 -0.24578279887989 -0.75285828332833
 1  13.34362923292329  1.88198774377438 -0.45242414701470
 1  12.99671171597160  1.94415866716672  0.64451024042404
 1  15.16063748954896 -0.37303481948195 -0.18032622382238
 1  14.75455535543554  0.98036843234323  3.03981675467547
 1  14.09600687418742 -0.76051372327233  2.66155365346535
 1  15.67235426852685 -0.41376495959596  2.29635611331133
 1  15.38044917981798  1.82170216361636 -0.87207718241824
 1  15.76273030563056  2.76894643014301  0.75663398659866
 1  17.47561887698770  0.55613878447845  0.83823401010101
 1  17.26713423762376 -0.27808963976398 -0.83273465086509
 1  18.34797980508051  2.61304785258526 -1.29647263556356
 1  18.52499249534954  2.36201010791079  0.34096076657666
 1  19.84094665586559  0.45638848504850  0.11255460626063
 1  19.40837915591559  1.15186023562356 -2.84189631483148
 1  20.40151444144414  0.51049924812481 -2.04479861326133
 1  19.33379610661066 -0.13683140154015 -2.32740081478148
 1  20.74648142674267  2.99990957005701  0.55518627222722
 1  21.71677941824182  1.95499208190819 -0.87550026502650
 1  20.77015366826683  3.15935342254225 -1.03103790009001
 1 -0.14644026912691 -4.32521527092709  2.74395274327433
 1 -1.99343902490249 -5.43440071377138  3.06245688228823
 1 -1.85756977027703 -3.77951642874287  4.08794294749475
 8 -11.52874124842484  3.93950875007501 -0.96078789248925
 1 -12.50935144664466  2.44202544264426 -1.56069667466747

