%nproc=4
%Mem=4GB
# td=(NStates=1) iop(3/107=0140000000,3/108=0140000000) iop(3/107=0140000000,3/108=0140000000) CAM-B3LYP/6-31G(d,p) 

TD

0 1
12 -5.64563607020702  1.18349322362236  0.26346495169517
 6 -5.02780316751675 -2.16591505480548 -0.35877274407441
 6 -3.44469325842584  1.15228551335134  2.81610698399840
 6 -6.33878267396740  4.58335159935994  0.73845405420542
 6 -7.96391215831583  1.15053590429043 -2.44875254875488
 7 -4.44891914521452 -0.28890708250825  1.14448578737874
 6 -4.23894742224222 -1.61912561416142  0.76861921152115
 6 -3.23951707620762 -2.34076737953795  1.50607497119712
 6 -2.98390156115612 -1.31689458035804  2.74244080018002
 6 -3.59792722012201 -0.08748137583758  2.20228481368137
 6 -3.48840187958796 -1.75166860826083  4.08283098249825
 6 -1.89312450565057 -2.56914432373237  0.71345665116512
 6 -0.95761740524052 -3.56420400100010  1.31063465146515
 6  0.22067716821682 -3.89928376907691  0.50786898159816
 8  0.47645771007101 -3.35185249884989 -0.54406064026403
 8  1.01340818651865 -4.81093071037104  1.17855246254625
 7 -4.96027684398440  2.61234061096110  1.43531376307631
 6 -4.11496358615862  2.41004842654265  2.48455905920592
 6 -3.86201570527053  3.67438594079408  3.21007156335634
 6 -4.63638419111911  4.60153168146815  2.58132740404040
 6 -5.36136224042404  4.02915101030103  1.60802689498950
 6 -2.86832219531953  3.76878425422542  4.37677186658666
 6 -4.81477800840084  5.99760718121812  2.97854735953595
 8 -4.21517156515652  6.52626051405140  3.96489038893889
 7 -6.88792259215922  2.65324522032203 -0.64892654895490
 6 -6.95126784158416  3.92926254345435 -0.28906059475948
 6 -7.81742692909291  4.63432015681568 -1.26294040354035
 6 -8.39247870117012  3.63727065696570 -2.07801674607461
 6 -7.71722061256126  2.41178718751875 -1.72128807530753
 6 -8.22844583548355  6.05701561096110 -1.32313182198220
 6 -9.28028239153915  3.79653005120512 -3.30539517231723
 6 -8.69724117781778  4.08142628882888 -4.57387379137914
 7 -6.39924834383438 -0.06288130583058 -1.05073016501650
 6 -7.30292982258226 -0.07662373097310 -2.04666887758776
 6 -7.42738024522452 -1.37583928752875 -2.74123664626463
 6 -6.73210275907591 -2.24489406120612 -1.98763492919292
 6 -6.01332974837484 -1.42044560966097 -1.00091622202220
 6 -8.45417087488749 -1.57847797379738 -3.85257215341534
 6 -6.16881054815482 -3.63469905380538 -1.95640919601960
 8 -6.55382977847785 -4.51430912931293 -2.56130239533953
 6 -5.04808337043704 -3.59709776237624 -0.94547686748675
 6 -5.35892336973697 -4.69838527962796  0.09638331013101
 8 -5.85962173377338 -4.58344735283528  1.12707907130713
 8 -4.97653735193519 -5.86839803620362 -0.45858900350035
 6 -5.27863542774277 -7.03010486378638  0.37571940174017
 6  2.31486245944594 -4.98433955415542  0.56964091849185
 6  3.38479301430143 -4.08875903680368  1.00000790059006
 6  3.99247863806381 -3.18885175527553  0.19820345534553
 6  3.64002834173417 -3.01713665496550 -1.24531403590359
 6  5.08088451425142 -2.28101314891489  0.76312011081108
 6  6.49904477577758 -2.61239416461646  0.10427189458946
 6  7.62646797039704 -1.77412676817682  0.61414710521052
 6  8.98923974527453 -1.86456128972897 -0.09985776827683
 6  9.58085446714671 -3.39842048244824  0.17548409070907
 6  9.94105468456846 -0.88368860626063  0.45340785628563
 6  11.33869117151715 -0.87635724262426 -0.18465723192319
 6  12.13268095669567  0.34445907340734  0.25139198679868
 6  13.63972642844284  0.45822069196920 -0.61581634483448
 6  14.53096139513951 -0.72624202680268 -0.42650680158016
 6  14.35104104370437  1.71966813841384 -0.22773202800280
 6  15.56934112451245  2.12166019421942 -1.11468646364636
 6  16.04537712211221  3.56057080988099 -0.76933754695470
 6  17.44942019111911  3.80300814241424 -1.48379231443144
 6  17.30457304700470  4.01390628232823 -2.96939916411641
 6  18.13612301840184  5.03521878717872 -0.83235269416942
 1 -2.92529825262526  1.23842811821182  3.73962443084308
 1 -6.63991196999700  5.68624400480048  0.87937692939294
 1 -8.60456086328633  1.20328063096310 -3.28556403520352
 1 -3.50212127692769 -3.17200251565157  2.00994905570557
 1 -1.89378650255026 -0.87355501710171  2.70656193229323
 1 -3.05746552565256 -2.69614277547755  4.30172371637164
 1 -3.24964575727573 -1.12091199559956  4.96865889568957
 1 -4.57295980768077 -1.76202528342834  4.16747069756976
 1 -2.03378869256926 -3.14394391169117 -0.38955957975798
 1 -1.48569640204020 -1.63118223452345  0.48230635223522
 1 -0.47125255875588 -2.99580087568757  2.14181840054005
 1 -1.42335705730573 -4.49301643284328  1.85362716071607
 1 -1.87032714651465  3.38835836023602  4.09436534623462
 1 -3.00155114521452  4.70927813381338  4.74308056575658
 1 -3.15069806480648  3.04781577907791  5.03451845784578
 1 -5.56260932483248  6.44009820422042  2.36260158155816
 1 -9.93189232273227  2.80021067816782 -3.55965921762176
 1 -10.05449624752475  4.57209105320532 -3.02491278197820
 1 -9.34826462626263  4.06272468646865 -5.47564276657666
 1 -8.03246275567557  5.00041978737874 -4.46072602760276
 1 -8.01846169516952  3.30278963776378 -5.05456538133813
 1 -8.31220881048105 -0.84223476637664 -4.69764076237624
 1 -8.56767775077508 -2.69796320142014 -4.04102673967397
 1 -9.37601768126813 -1.13899072247225 -3.45973287998800
 1 -4.25031238863886 -4.06118094469447 -1.45497878477848
 1  2.59499063206321 -5.86718466146615  0.84296025292529
 1  2.14950569396940 -5.22669964606461 -0.48340178977898
 1  3.50458258055806 -4.18947822962296  2.10512552015202
 1  2.82900788748875 -3.52247786888689 -1.57631017201720
 1  3.66746135943594 -1.85030859015902 -1.53488595909591
 1  4.60094226822682 -3.50368409760976 -1.85965489138914
 1  4.99859990089009 -1.32437886188619  0.52949483298330
 1  5.23156168346835 -2.48383001540154  1.81464634493449
 1  6.55296282298230 -3.62323551565157  0.31330921492149
 1  6.28195835623562 -2.66818442744274 -1.06718731423142
 1  7.24318324962496 -0.61873519861986  0.55635288078808
 1  7.73712581548155 -2.09551613471347  1.80833521882188
 1  8.68939304860486 -1.65633390859086 -1.04600793889389
 1  8.87854237293729 -4.06563533493349 -0.15870966336634
 1  10.55981532233223 -3.56232043414341 -0.40429054255426
 1  9.89180824222422 -3.16974806630663  1.25011545424542
 1  9.59907905850585  0.12197792399240  0.48810417421742
 1  10.14241433893389 -1.10645717961796  1.52734227422742
 1  11.85100024132413 -1.73913394529453  0.05302092889289
 1  11.22856894359436 -0.87282018691869 -1.22027336093609
 1  11.58687972147215  1.15575000420042 -0.08937849304930
 1  12.51631645494549  0.48081927332733  1.31880016021602
 1  13.24309110981098  0.34564899719972 -1.68948118681868
 1  15.07231656995699 -0.77845605830583  0.58619429942994
 1  13.99905547654765 -1.71997101340134 -0.45607192869287
 1  15.22492348074808 -0.67665086328633 -1.16289318181818
 1  13.66378457265727  2.59159377847785 -0.35082687038704
 1  14.55384208450845  1.47326761596160  0.79774698859886
 1  16.42678433423342  1.42283089578958 -0.81061755245525
 1  15.41223680708071  1.93891780458046 -2.14516589628963
 1  15.26615802040204  4.49453483148315 -0.89251124922492
 1  16.38995176527653  3.51743838523852  0.23453335373537
 1  17.94703838523852  2.84447593879388 -1.08694777437744
 1  16.68640936133613  4.82277880678068 -3.01602396219622
 1  18.30244616811681  4.13594310761076 -3.25446005110511
 1  16.73454365456546  3.13921499149915 -3.32889092369237
 1  18.31617766496650  4.77549876737674  0.28280994519452
 1  19.14739226152615  5.49566371857186 -1.00783769816982
 1  17.51559311021102  5.84383388648865 -1.04328839013901
 1 -5.14909021042104 -7.91343077617762 -0.32390592829283
 1 -6.24864929522952 -7.10753784038404  0.80326383388339
 1 -4.64225239383938 -7.16169774537454  1.22172662926293
 8 -7.72452004360436  6.87765426622662 -0.55338312231223
 1 -8.74369266636664  6.34274991989199 -2.09893557635764

