%nproc=4
%Mem=2GB
# td=(NStates=1) iop(3/107=0140000000,3/108=0140000000) iop(3/107=0140000000,3/108=0140000000) CAM-B3LYP/6-31G(d,p) 

TD

0 1
12 -6.79816238833883  0.48511765586559  0.22498011751175
 6 -4.52816992349235 -2.01594001580158  0.58363864086409
 6 -4.30031184658466  2.74630626372637  1.09026190779078
 6 -9.03949665436544  3.31882590669067 -0.03310281198120
 6 -9.35680377797780 -1.96367939753975 -0.52309236793679
 7 -4.81724679657966  0.35069446714671  0.76766579867987
 6 -3.98819608520852 -0.81180088688869  0.73656421182118
 6 -2.56271969056906 -0.55538729792979  1.11796385868587
 6 -2.59141910771077  0.99400954975498  1.35371753425343
 6 -3.99408567146715  1.43509359455946  1.05448022272227
 6 -2.32419870557056  1.25470726662666  2.79273383618362
 6 -1.54259300770077 -0.98151071447145 -0.05944461816182
 6 -0.12888100640064 -1.05135684228423  0.52376144964496
 6  0.83559463866387 -1.18567580448045 -0.74094226802680
 8  0.67899796789679 -0.55027764026403 -1.84162515271527
 8  1.92343262986299 -1.94693499209921 -0.40958588108811
 7 -6.64269601180118  2.52517288728873  0.32774652255226
 6 -5.66724728562856  3.22770141334133  0.81907820402040
 6 -5.79438365356536  4.77000668546855  0.77066193479348
 6 -7.14512522592259  4.88818490899090  0.26309289258926
 6 -7.77195889978998  3.53870267866787  0.11689652105211
 6 -4.90836575687569  5.94334176467647  0.81837950595059
 6 -7.85430699199920  6.14597151725173  0.02273179687969
 8 -7.39084300050005  7.35076669326933  0.13293114991499
 7 -8.88239179267927  0.70790164936494 -0.20360300940094
 6 -9.59651332373237  1.91591632693269 -0.35551660396040
 6 -11.06937356765677  1.58600847194719 -0.74234001520152
 6 -11.11974633213321  0.22772367676768 -0.95443629912991
 6 -9.85730739403940 -0.54550271347135 -0.59783185988599
 6 -12.17132390769077  2.50800699379938 -1.03035768656866
 6 -12.24555767626763 -0.65424898719872 -1.32568070177018
 6 -12.16186304840484 -0.97156932213221 -2.86459925462546
 7 -6.87854433733373 -1.43495605690569  0.04736209170917
 6 -8.07448010961096 -2.34059405610561 -0.39131232923292
 6 -7.43173075817582 -3.59212653505351 -0.47526853695370
 6 -6.20997661886189 -3.73218237913791 -0.12242050265027
 6 -5.86443273197320 -2.17089590409041  0.06331251555156
 6 -8.31843036653665 -4.82826020382038 -0.83172598849885
 6 -5.07049325382538 -4.49792559065907  0.03562158785879
 8 -4.81068281698170 -5.70788132643264 -0.08950844424442
 6 -3.84144787018702 -3.39167972717272  0.38326297349735
 6 -3.21990550145014 -3.82934911041104  1.86303601660166
 8 -3.83702894299430 -4.14226096089609  2.85905457525753
 8 -1.79585126002600 -3.78068437373737  1.66018595779578
 6 -1.21404992709271 -3.91974706480648  2.88957338253825
 6  2.94863675647565 -2.06665184208421 -1.35544678877888
 6  3.99818358575858 -1.10642764386439 -1.16901243354335
 6  5.12572332773277 -0.82674954635464 -2.00236643824382
 6  5.20425440924092 -1.53327646234623 -3.27425440764076
 6  6.09344316891689  0.18537088418842 -1.63554011251125
 6  7.29530822482248 -0.54039982208221 -0.68003474077408
 6  8.34954751505150  0.50753638823882 -0.50547902840284
 6  9.60322341174117 -0.34078099839984  0.02891458575858
 6  9.47266478277828 -0.79016783148315  1.52078644744474
 6  10.98378070807081  0.66630148434843  0.14238907730773
 6  12.18643391389139  0.11887319451945  0.16665497669767
 6  13.53579512211221  1.04539181388139  0.39728262666267
 6  14.98669500470047  0.21958523662366  0.47000166226623
 6  15.08625361346134 -0.42622490299030  1.87075699969997
 6  16.04233386178618  1.25630053205321  0.34792799809981
 6  17.54843432153215  0.58124334873487  0.07899102520252
 6  18.68111765916592  1.60447763896390 -0.09328947574757
 6  20.00112231333133  0.88256675147515 -0.63774385808581
 6  20.09172897419742  0.27807323762376 -2.02386817801780
 6  21.01640880978098  2.03666508450845 -0.38044314021402
 1 -3.40318095639564  3.40704195519552  1.25825522722272
 1 -9.73625760826083  4.11023010811081 -0.23299693359336
 1 -10.21614410601060 -2.51942234153415 -0.67201002690269
 1 -2.53772628942894 -1.20081769956996  1.99246929522952
 1 -1.96326566516652  1.61480195639564  0.63538999239924
 1 -1.52318370207021  1.06591490589059  3.07908861996200
 1 -2.61431960586058  2.25493406980698  2.73458957675768
 1 -2.96336866936694  0.99649753505351  3.63660953005301
 1 -2.11650067036704 -1.92968424142414 -0.46418420522052
 1 -1.53453862286229 -0.19762123502350 -0.85001479227923
 1  0.30306830513051 -0.01797323062306  1.06899276447645
 1 -0.13868758855886 -1.90515684948495  1.32975320742074
 1 -4.22755728612861  5.51762959085909  0.26665162286229
 1 -5.07977825842584  7.03335601150115  0.40391729782978
 1 -4.45568659685969  6.24485344634464  2.19564733703370
 1 -8.85516853095310  6.01367647684768 -0.09332570837084
 1 -12.26798635223522 -1.75038590609061 -0.81498592579258
 1 -13.30317653265327 -0.12698629882988 -1.30317795419542
 1 -13.23231105420542 -1.90520263566357 -3.05595271237124
 1 -12.21991895569557  0.03172059355936 -3.70594276377638
 1 -11.13776060046005 -1.72196551355135 -2.96594320172017
 1 -8.53743292659266 -4.87179373497350 -1.92287451545154
 1 -7.87618283288329 -5.74253426602660 -0.84315396729673
 1 -9.05965324532453 -4.60266222742274 -0.12561795229523
 1 -3.23749333073307 -3.51288501340134 -0.46881518831883
 1  3.20003161856186 -3.15267254105411 -1.17134285138514
 1  2.51818610741074 -2.11068698369837 -2.16764700000000
 1  3.67378470617062 -0.52844559295930 -0.23958035643564
 1  4.50434349134913 -1.18315178767877 -3.75042515751575
 1  5.69221279967997 -1.26895557095710 -3.31781300520052
 1  5.19399322672267 -2.53195580988099 -3.28040222402240
 1  6.33574399629963  0.64469980738074 -2.63723634083408
 1  5.65458056745674  0.81453700150015 -1.05832009540954
 1  6.72489366826683 -0.85094329142914  0.23568529012901
 1  7.91133653205321 -1.67392618291829 -1.33571304720472
 1  8.81250338173817  1.01337193199320 -1.32132491779178
 1  8.23538203630363  1.18363355155516  0.30270597899790
 1  10.21593404050405 -0.88777622132213 -0.88529568716872
 1  9.24001624592459 -2.13664247994799  1.53434179497950
 1  10.56439250865087 -0.82670655185519  2.18538042944294
 1  8.85572878447845 -0.08001922432243  1.99038034313431
 1  10.75464910271027  1.54063682358236 -0.58539571117112
 1  10.62329207580758  1.10479935553555  1.29336321662166
 1  12.12876041824182 -0.89241168066807  0.81650533383338
 1  12.33555570957096 -0.29494771537154 -0.80162315981598
 1  13.41655652565256  1.86347589258926 -0.42406131073107
 1  13.24503654845484  1.37726197749775  1.36550233963396
 1  15.34322574837484 -0.29196671267127 -0.73206139733973
 1  14.53441334123412  0.32565296079608  2.48831160416042
 1  14.85675294879488 -1.46360403230323  1.60615811391139
 1  16.36265329842984 -0.54739832293229  2.28551502920292
 1  15.40484161906191  2.04314430783078 -0.40780075477548
 1  16.34026805940594  1.81050058555856  1.34409273247325
 1  17.73625494059406 -0.27514434383438  0.77507769446945
 1  17.27290481468147 -0.28908073887389 -1.17054843224322
 1  18.66441144824482  2.22869941774177 -0.88165115341534
 1  18.80051004710471  1.92896680358036  0.87623429392939
 1  20.26338890009001 -0.16913406720672  0.03976732753275
 1  19.24621293929393  1.12936798639864 -2.72402452765277
 1  21.10903519351935 -0.10914271607161 -2.42679681308131
 1  19.71145387238724 -0.79448716711671 -1.75375345004500
 1  21.04247102570257  2.65919549864986  0.66234698829883
 1  22.11570931123113  1.65295187788779 -0.35438815381538
 1  20.95063171607161  2.83680116731673 -0.92947774407441
 1  0.05301967686769 -3.55342809220922  2.55624397239724
 1 -1.14146382738274 -5.25787306100610  2.87500813741374
 1 -1.53894790809081 -3.46413489058906  3.96588074127413
 8 -11.97095546984698  3.80547534673467 -1.08218003170317
 1 -13.02295280678068  2.07034827492749 -1.25706631163116

