%nproc=4
%Mem=2GB
# td=(NStates=1) iop(3/107=0140000000,3/108=0140000000) iop(3/107=0140000000,3/108=0140000000) CAM-B3LYP/6-31G(d,p) 

TD

0 1
12 -6.67770034213421  0.53239238333833  0.20978859835984
 6 -4.50298740524052 -2.28605702750275  0.52085236223622
 6 -3.90808262366237  2.59723135623562  0.94061694329433
 6 -8.90554325902590  3.42033605770577 -0.12615211691169
 6 -9.31904000160016 -1.64348737833783 -0.77911797049705
 7 -4.61833690559056  0.21197059475948  0.78523755585559
 6 -3.87357462306231 -1.00709041584158  0.82127268266827
 6 -2.46427984658466 -0.87367912711271  1.13754581688169
 6 -2.37607757355736  0.78944909370937  1.41165332783278
 6 -3.61156741964196  1.25639572477248  1.00320509520952
 6 -2.07152343804380  0.94184598049805  3.00443500630063
 6 -1.44446319471947 -1.26859942334233 -0.01212988668867
 6 -0.11004912321232 -1.36100780738074  0.36538561206121
 6  0.85879695889589 -1.59936717361736 -0.89580775457546
 8  0.64752482058206 -1.14078669116912 -1.91015200540054
 8  1.83162344894489 -2.39422972157216 -0.48599352185219
 7 -6.48109985218522  2.52609297929793  0.38523227112711
 6 -5.24384494539454  3.29947859105911  0.60362665886589
 6 -5.52041625682568  4.78980866566657  0.71274614321432
 6 -6.82839355275528  4.96909299979998  0.36554313761376
 6 -7.54200590449045  3.57347615601560  0.27108193959396
 6 -4.44751967226723  5.97168459895990  0.83725139313931
 6 -7.60633219451945  6.24122104220422  0.27197672137214
 8 -7.10671458765877  7.42215383198320  0.23821167796780
 7 -8.66606015951595  0.82014287348735 -0.35680832993299
 6 -9.42592626502650  2.02456719201920 -0.32953400570057
 6 -10.72878950925093  1.79653952505251 -0.86075185638564
 6 -10.92583694119412  0.38139904430443 -1.05698655415542
 6 -9.61786344964496 -0.27632579577958 -0.68240031673167
 6 -11.68187496279628  2.83864005710571 -1.10051470227023
 6 -12.18549166966697 -0.20012357465747 -1.34099223292329
 6 -12.24785164726473 -0.31751391659166 -2.89641243594359
 7 -7.01358784168417 -1.39209177047705 -0.00439308380838
 6 -8.05241790339034 -2.19803980068007 -0.52791598959896
 6 -7.72529011411141 -3.67542486488649 -0.37378838893889
 6 -6.47714333553355 -3.66497565846585  0.00122186158616
 6 -5.99442573127313 -2.30992980748075  0.15915209950995
 6 -8.70603912741274 -4.73677105490549 -0.74518733463346
 6 -5.22447865236524 -4.58231402950295  0.26898492419242
 8 -5.27656940564056 -5.87283782208221  0.19020952755276
 6 -3.99952367776778 -3.62967352655266  0.51799644684468
 6 -3.51079459035904 -3.94811098659866  1.91781149414942
 8 -4.04621986208621 -4.36844357915792  2.91648031783178
 8 -2.15157683258326 -3.86751305660566  1.94762470167017
 6 -1.33269179127913 -4.22086717681768  3.17651207640764
 6  2.98434032683268 -2.60238541544154 -1.58600984508451
 6  3.98844261166117 -1.53184018511851 -1.29259479177918
 6  5.06194695009501 -1.34574144554455 -1.92029823142314
 6  5.37525150895090 -1.91248438313831 -3.18263524572457
 6  5.87486131073107 -0.18015566846685 -1.64439099759976
 6  7.27062575657566 -0.81436721882188 -1.08913565086509
 6  8.29955251555155  0.11110674527453 -0.63827230773077
 6  9.45252834223422 -0.35710263056306 -0.18669697539754
 6  9.51030854715471 -0.63564237893789  1.48429279807981
 6  10.71326365636564  0.73103795799580 -0.16744190579058
 6  12.11415668616862  0.17668897609761  0.16783509470947
 6  13.17281882448245  1.36711398609861 -0.03804090569057
 6  14.70262659785979  0.76569984808481  0.47096175827583
 6  14.83438842694270  0.32846056555656  1.99324924892489
 6  15.90449007740774  1.67829273127313  0.09799300460046
 6  17.17526700480048  1.06931215561556  0.29667279337934
 6  18.35622516991699  1.94849204040404 -0.18200834763476
 6  19.76749895099510  1.32782127692769 -0.15284536823682
 6  19.74264406570657  0.24948037833783 -1.23602939413941
 6  20.85878304720472  2.53003442144214 -0.56026112201220
 1 -3.10218085638564  3.31872312331233  1.48043744544455
 1 -9.83548753125313  4.07530661576158 -0.27696133003300
 1 -10.03394588618862 -2.32565296459646 -1.18765159105911
 1 -1.89864238103810 -1.67074469226923  2.06796684498450
 1 -1.54264360296030  1.29216969316932  1.00478693209321
 1 -1.02836422012201  0.73625193959396  3.31030174127413
 1 -2.03707188108811  1.95059363576358  3.01151726952695
 1 -2.78379071157116  0.22579046434643  3.52108797789779
 1 -1.95211423172317 -1.92981425442544 -0.61919970677068
 1 -1.55271044004400 -0.52169364226423 -0.88081787258726
 1  0.05518351665167 -0.42784421772177  0.87829369456946
 1 -0.08615233503350 -2.10617695149515  1.08040827292729
 1 -4.02591712211221  5.92717054495450 -0.03749879217922
 1 -4.41332161276128  6.84948762466247  1.28843574967497
 1 -3.79102013021302  6.00413937493749  1.79629740204020
 1 -8.73731674577458  5.91318642784278 -0.15555193099310
 1 -12.30850040364036 -1.18857972547255 -0.97722214941494
 1 -12.86684289928993  0.53783018281828 -0.87179481588159
 1 -12.81308913201320 -1.15061717711771 -3.29196631373137
 1 -12.53008997279728  0.67636505800580 -3.02507467696770
 1 -11.64931175557556 -0.58227154415441 -3.61937854525453
 1 -10.02662184548455 -4.10977753335334 -1.52433466146615
 1 -7.90618583318332 -5.49662967556756 -1.47851750365037
 1 -9.16208348834884 -5.22917487868787  0.34205881538154
 1 -3.12510209160916 -3.67363108800880 -0.55205351215122
 1  3.32283389878988 -3.51355862966297 -1.08787450455045
 1  2.48062235103510 -2.64979089408941 -2.56563679897990
 1  3.79058638633863 -1.04790753915392 -0.45799219761976
 1  4.66533959095910 -1.72304577707771 -4.27011712671267
 1  6.03468704710471 -1.36810548594860 -3.48174939883988
 1  5.69500332773277 -2.78435104940494 -3.12883706750675
 1  6.26182660456046  0.52308764616462 -2.52037465466547
 1  5.34315942534253  0.60936648444844 -0.92339660306031
 1  6.83257443634363 -1.46865506260626 -0.14590286868687
 1  7.88812421082108 -1.47623641394139 -1.72613208910891
 1  8.68453058445844  0.53355395019502 -1.74916770207021
 1  7.92847134523452  1.18432362056206  0.06551225962596
 1  9.77593004010401 -1.24435187888789 -1.00114727232723
 1  8.86122836713671 -1.20161897759776  1.70476883768377
 1  10.46035210461046 -1.10773465466547  1.89229112051205
 1  9.24962817441744  0.57488626622662  1.94281558665867
 1  10.39222286008601  1.17624038393839 -1.16202337393739
 1  10.34302404900490  2.02075095069507  0.72444632493249
 1  12.15456299849985 -0.29618205770577  1.43596728002800
 1  12.32505465946595 -0.87366558715872 -0.59881287878788
 1  13.27029189918992  1.75051459645965 -1.21132003660366
 1  12.81092313711371  2.08717296859686  0.80904669406941
 1  14.98766019181918 -0.38585610161016 -0.12098028922892
 1  14.66973687358736  1.03769416491649  2.72738551155116
 1  14.14106137963796 -0.38325599749975  2.27676517461746
 1  15.82780981408141  0.13606002290229  2.41685816351635
 1  15.79709084398440  1.97136713011301 -1.11427140184018
 1  15.79764379697970  2.83138267376738  0.73501182438244
 1  17.63338465356536  1.00653382398240  1.38477866456646
 1  17.19842736693669  0.11465963516352 -0.47662904030403
 1  17.79733474057406  2.45708225602560 -1.18446143444344
 1  18.43032302840284  2.63781768866887  0.46677334783478
 1  19.82513507470747  1.00579342554255  0.95940929172917
 1  19.79177749574957  0.92489753935394 -2.19193131833183
 1  20.43460775077508 -0.45199700150015 -1.49605373877388
 1  18.85048777577758 -0.39224694309431 -1.13323139783978
 1  20.49912669126913  3.52396197529753  0.30140089368937
 1  21.69613735403540  1.69070565326533 -0.41508422342234
 1  20.81643829672967  3.02933042024202 -1.81777657395740
 1 -0.12582820792079 -3.83032578197820  2.61273962196220
 1 -1.49473915491549 -5.22063933763376  3.46667730433043
 1 -1.68129214251425 -3.41231970907091  3.97758191139114
 8 -11.39247762206221  4.00380517971797 -1.27173898759876
 1 -12.61359187068707  2.44293553365337 -1.31012161716172

