%nproc=4
%Mem=4GB
# td=(NStates=1) iop(3/107=0140000000,3/108=0140000000) iop(3/107=0140000000,3/108=0140000000) CAM-B3LYP/6-31G(d,p) 

TD

0 1
12 -5.68309981658166  1.23487836213621  0.18664726992699
 6 -4.97220760796080 -2.08040650395040 -0.39522638943894
 6 -3.31504029312931  1.17398768356836  2.75070044334433
 6 -6.19871866756676  4.50909417361736  0.69213942274227
 6 -7.90227599469947  1.16260711141114 -2.43398107160716
 7 -4.30187444074407 -0.31252944474447  1.09136047484748
 6 -4.20728425592559 -1.52533623522352  0.58281063066307
 6 -3.27330045454545 -2.28111141394139  1.54302866656666
 6 -2.85290846184618 -1.27028991989199  2.66241279737974
 6 -3.58624605200520 -0.05525815351535  2.22423700890089
 6 -3.39124216361636 -1.79545298669867  4.02219491889189
 6 -2.03207840104010 -2.77066447574757  0.79939524502450
 6 -1.05765740924092 -3.74118169876988  1.59429301730173
 6  0.22982808330833 -3.97400124082408  0.75435363006301
 8  0.45527559185919 -3.33817113071307 -0.31756799099910
 8  1.07962480818082 -4.73632324962496  1.32239684698470
 7 -4.87574839113911  2.54307368426843  1.56771700340034
 6 -3.89788187798780  2.32733015471547  2.48534913821382
 6 -3.72029153285329  3.58647714991499  3.16382693889389
 6 -4.59016956965697  4.46775830413041  2.60178945024502
 6 -5.29548565276528  3.83338143334333  1.52183827612761
 6 -2.79764512761276  3.89196657245725  4.24471866126613
 6 -4.60634716531653  5.96093351385138  2.87743724852485
 8 -3.93005305330533  6.44274216221622  3.73989788968897
 7 -6.87824162406241  2.71113100890089 -0.77675933223322
 6 -6.89471218601860  3.90449006620662 -0.41093278197820
 6 -7.87005219161916  4.63932065686569 -1.25167927742774
 6 -8.41613106640664  3.63692062196220 -2.10458940334033
 6 -7.75274416491649  2.43107911671167 -1.79957590409041
 6 -8.27030002090209  5.97995790519052 -1.16136564536454
 6 -9.40692505580558  3.81629202740274 -3.23365799859986
 6 -8.65874732843284  4.22371051725172 -4.57472387638764
 7 -6.40016843584358 -0.16584160186019 -1.12407749974997
 6 -7.27511704130413 -0.01635770437044 -2.14191840254025
 6 -7.57528503570357 -1.34235593919392 -2.75904842744274
 6 -6.65759530833083 -2.18648822062206 -2.18096426212621
 6 -5.99849826522652 -1.44390795589559 -1.13771990239024
 6 -8.58494395219522 -1.68476860286029 -3.82496939313931
 6 -6.26738040514051 -3.60941652555256 -1.94842839793979
 8 -6.58079247474747 -4.66012371077108 -2.50912717781778
 6 -5.08998756085609 -3.61187924052405 -0.85620794059406
 6 -5.38988646604660 -4.69200464156416  0.18139181098110
 8 -5.80956672827283 -4.43113212131213  1.25484184758476
 8 -5.07323702190219 -5.90692188858886 -0.42687583218322
 6 -5.47589515371537 -6.96223807710771  0.37541937173717
 6  2.31658263146315 -4.97556867706771  0.68317227162716
 6  3.27891242624262 -3.99509967086709  1.02610050985098
 6  3.98676806700670 -3.20068293839384  0.18921255625563
 6  3.67617195609561 -2.99120406170617 -1.26464596909691
 6  5.03101952775278 -2.25213026062606  0.66614041284128
 6  6.39423429472947 -2.52494541974197 -0.02018055065507
 6  7.53430875447545 -1.64845420092009  0.59743543404340
 6  8.98704952625262 -1.84949978357836 -0.10062784528453
 6  9.45419180088009 -3.39408004840484  0.00619716201620
 6  10.04850542964296 -0.88232847024702  0.36738925442544
 6  11.37104440684068 -0.75034464136414 -0.39035780198020
 6  12.17180486908691  0.44411903940394  0.04364121172117
 6  13.58562101790179  0.45328019791979 -0.70516527972797
 6  14.49145744474447 -0.77040644324432 -0.41862601350135
 6  14.35890182978298  1.59627579917992 -0.12631188598860
 6  15.52769696009601  1.96759478767877 -1.00787578257826
 6  16.14092667706771  3.41825657845785 -0.71396200940094
 6  17.39024427352735  3.96922476407641 -1.32201613681368
 6  17.44722731243124  4.07227211891189 -2.80805302950295
 6  17.83553295939594  5.27777304260426 -0.56088554745475
 1 -2.35863158595860  1.21894617001700  3.76051652005201
 1 -6.16361434023402  5.60678605900590  0.55835482718272
 1 -8.66566697389739  0.99080938383838 -3.27755323412341
 1 -3.85277634243424 -3.23367868326833  2.02039009980998
 1 -1.75172229612961 -1.46631429302930  2.58400967706771
 1 -2.91210098919892 -2.73116627782778  4.14815835983598
 1 -3.14069486218622 -1.15240514491449  4.81580361016102
 1 -4.50786329802980 -1.86154523542354  4.11633558405841
 1 -2.21920723442344 -3.18835835313531 -0.11231185498550
 1 -1.20443827622762 -1.85593470977098  0.47228535013501
 1 -0.88749418291829 -3.40534182978298  2.55965018371837
 1 -1.61630635223522 -4.73794092529253  1.69194099209921
 1 -1.67278739253925  3.83851337573758  3.96976288598860
 1 -2.95165615571557  4.91614882088209  4.64081033873387
 1 -2.91473446844685  3.06960795829583  5.07187219321932
 1 -5.29195225912591  6.63447764216422  2.34143946534653
 1 -9.96235536903690  2.88066872397240 -3.39632288398840
 1 -10.10338113601360  4.83997784188419 -3.17137742844284
 1 -9.25671547134714  4.34858327232723 -5.43534873717372
 1 -8.01011052045205  5.06388613401340 -4.54006396139614
 1 -8.06790663966397  3.50048940774077 -4.85996592139214
 1 -8.36776436603660 -1.21468201110111 -4.68476947524752
 1 -8.70405138813881 -2.65616902200220 -4.06206884388439
 1 -9.52554263376338 -1.10195701910191 -3.46515342204220
 1 -4.18166552395239 -3.97473229982998 -1.36849013591359
 1  2.58398953195320 -5.97527547054705  1.03221917881788
 1  2.12369311271127 -4.94014099019902 -0.51010446004600
 1  3.63541566386639 -3.99264854665467  1.93815882348235
 1  2.80239522622262 -3.47590321142114 -1.52084462546255
 1  3.35413002630263 -1.84682824212421 -1.65319779027903
 1  4.47108928292829 -3.53159688888889 -1.90350927682768
 1  4.70434047494749 -1.27381380538054  0.31123300680068
 1  5.12955148244825 -2.41174280668067  1.70252513281328
 1  6.59881740844084 -3.57579077117712 -0.02888500450045
 1  6.30365052545254 -2.41319892889289 -1.03461405690569
 1  7.18590752205221 -0.60603392849285  0.71044829032903
 1  7.60032213511351 -1.86504308740874  1.65140952625263
 1  9.10851496079608 -1.67296557175718 -1.21437477557756
 1  8.53864838353835 -4.01930070147015 -0.12469626202620
 1  10.19573891469147 -3.58668287038704 -0.79658977247725
 1  9.77568663006301 -3.66133722522252  1.05836627932793
 1  9.48170732133213  0.06104183038304  0.24087945174517
 1  10.03746384388439 -0.95793232713271  1.57551709170917
 1  11.99272441374137 -1.59746977887789 -0.10700507370737
 1  11.00953704040404 -0.69897280218022 -1.42955428902890
 1  11.76175720922092  1.28630305950595 -0.29291884708471
 1  12.26280110341034  0.21076226762676  1.22931121132113
 1  13.39919672037204  0.42907734003400 -1.83293553225323
 1  14.52311164946495 -0.99554776747675  0.49779545954595
 1  13.99517508850885 -1.74620363666367 -0.76014233573357
 1  15.48886987538754 -0.87843104130413 -0.89551644414441
 1  13.61392958715872  2.51324594369437 -0.14302609030903
 1  14.77770447074708  1.42141243044304  0.86485369926993
 1  16.40583223902390  1.38857747044704 -0.96326281698170
 1  15.21236682008201  2.00634454725473 -2.19030040974097
 1  15.51126253085308  4.27592297029703 -0.86488848694869
 1  16.20400317041704  3.65647228862886  0.46171607200720
 1  18.36308999039904  3.31422291349135 -1.14073315291529
 1  16.78396911731173  4.80408693759376 -2.94891725152515
 1  18.54130005350535  4.20828034133413 -3.35289989508951
 1  17.28008820902090  3.08673974397440 -3.21632966756676
 1  17.86850289748975  5.03564478197820  0.58086975117512
 1  18.73534105640564  5.47369152135214 -1.07065397979798
 1  17.22625417631763  6.13469297239724 -0.66439050035003
 1 -5.41474677607761 -7.91213064616462 -0.16738027572757
 1 -6.43197762806281 -6.66946403300330  0.71265477297730
 1 -4.84165233383338 -7.10412198779878  1.28816327292729
 8 -7.92626021762176  6.79170567136714 -0.27474525852585
 1 -8.96165446254625  6.42254789968997 -2.06228191099110

