%nproc=4
%Mem=4GB
# td=(NStates=1) iop(3/107=0140000000,3/108=0140000000) iop(3/107=0140000000,3/108=0140000000) CAM-B3LYP/6-31G(d,p) 

TD

0 1
12 -5.50404191079108  1.21546642094209  0.17895650085009
 6 -5.07104749194920 -2.20906937023702 -0.27514438123812
 6 -3.33412220132013  1.19082936773677  2.73791916521652
 6 -6.20395919161916  4.59987325152515  0.67607781658166
 6 -7.88693446054605  1.11698254895490 -2.39707738123812
 7 -4.35874012731273 -0.31656984878488  1.14406574537454
 6 -4.31262478997900 -1.66684038563856  0.68916126572657
 6 -3.37232035653565 -2.34912821562156  1.51983634733473
 6 -2.98912208320832 -1.32483537443744  2.65907246334634
 6 -3.64429185658566 -0.10042266996700  2.24526911211121
 6 -3.46078911831183 -1.82712615401540  4.03466616601660
 6 -2.05327052025203 -2.67668507780778  0.66273157865787
 6 -1.02428407190719 -3.48771635223522  1.39963355135514
 6  0.18890399089909 -3.97220106080608  0.49253744844484
 8  0.35309537383738 -3.41076839043904 -0.61884811901190
 8  0.98565541124112 -4.84368398569857  1.10158476577658
 7 -4.85279609590959  2.67307668456846  1.46159639133913
 6 -3.95630772057206  2.43786120782078  2.51792239553955
 6 -3.76994649834984  3.69391789398940  3.13767432363236
 6 -4.40248080078008  4.65956748504850  2.51902117341734
 6 -5.20865696989699  4.02928102330233  1.52603869616962
 6 -2.80682604570457  3.83084045984598  4.29268345774577
 6 -4.60568709930993  6.01407882838284  2.94543404820482
 8 -3.96289633763376  6.67138502650265  3.82978687858786
 7 -6.78474227412741  2.72209210501050 -0.70245190149015
 6 -6.91871458625863  3.93465308250825 -0.41217290599060
 6 -7.80756594299430  4.57713443824382 -1.21577568706871
 6 -8.36963641694169  3.60425735563556 -2.13494243864386
 6 -7.67653654415442  2.38280428922892 -1.79209515601560
 6 -8.23522651355136  5.94546445584558 -1.21698120692069
 6 -9.37212157545755  3.85155555375538 -3.18815344814481
 6 -8.78843029672967  4.08764691089109 -4.61742814681468
 7 -6.34184260326033 -0.14929994769477 -1.05362045404540
 6 -7.23391292089209 -0.02697876647665 -2.13213742444244
 6 -7.60158766596660 -1.33079478307831 -2.68213073567357
 6 -6.67867741654165 -2.21503107490749 -1.97196336203620
 6 -6.04566298169817 -1.44250781588159 -0.97802393279328
 6 -8.36818227602760 -1.69176930293029 -3.82720961716172
 6 -6.18611227832783 -3.53689927382738 -1.91981553665367
 8 -6.66123051855186 -4.54466216461646 -2.54838110321032
 6 -5.06145470757076 -3.51639969256926 -0.78540085988599
 6 -5.45805328272827 -4.59419486058606  0.17734140594059
 8 -5.92524829642964 -4.50722973107311  1.30778714211421
 8 -5.11885158335834 -5.81933312971297 -0.34524766936694
 6 -5.35215277947795 -6.99904175747575  0.50985281508151
 6  2.28914988818882 -5.11532265246525  0.40553450785079
 6  3.45762029702970 -4.16980714161416  0.87227512731273
 6  4.10536992719272 -3.29134200430043  0.08597223222322
 6  3.81649598849885 -3.06127106840684 -1.35163466796680
 6  5.18505493129313 -2.50030507810781  0.71448524732473
 6  6.62184705600560 -2.79088201340134  0.12116358375838
 6  7.65034035763576 -1.81233058855886  0.70515620612061
 6  9.06075689698970 -1.98209304290429 -0.05563334583458
 6  9.44292067376738 -3.45207584798480  0.19189573187319
 6  10.07598817791779 -0.91627186458646  0.49282179767977
 6  11.28201550395040 -0.89539914681468 -0.34424319051905
 6  12.16980466906691  0.32059668716872  0.08841568916892
 6  13.45071752755275  0.59499436933693 -0.66894165736574
 6  14.44014231323132 -0.66915631823182 -0.54442859375938
 6  14.14625056465647  1.86283245484548 -0.18544779957996
 6  15.40937512791279  2.21828985718572 -0.99345434043404
 6  15.99778236263626  3.58241299409941 -0.71134174737474
 6  17.35248049714972  3.94639248084808 -1.28269220442044
 6  17.21280387008701  4.07795268696870 -2.76829905410541
 6  18.05662506860686  5.23020828612861 -0.58820827972797
 1 -2.82763848664867  1.38264253965397  3.70555102350235
 1 -6.27456543534353  5.59931531193119  0.83029202090209
 1 -8.68981938913891  0.97695799869987 -3.22838831763176
 1 -3.65430649544955 -3.35021033643364  2.01875993679368
 1 -1.88639576347635 -1.37910557215721  2.82026330243024
 1 -2.85428520762076 -2.69762292349235  4.47200074407441
 1 -3.53049384208421 -1.10963086748675  4.77684971477148
 1 -4.45833834553455 -2.06426550745074  3.82706665716572
 1 -2.24152946664666 -3.21636115341534 -0.33104372817282
 1 -1.56985481788179 -1.66161527782778  0.58547666926693
 1 -0.59654508800880 -3.33408470407041  2.48922314101410
 1 -1.55845056665667 -4.37097422862286  1.77425922392239
 1 -1.88057817161716  3.61212073647365  4.05458136783678
 1 -2.71264225432543  4.83591079707971  4.56460271797180
 1 -3.15640863586359  3.38707970547055  5.15572057805781
 1 -5.14447751165116  6.53619781418142  2.13310863226323
 1 -9.98525765926593  2.89417007410741 -3.48181143284328
 1 -10.21412221012101  4.57526137023702 -2.98900919161916
 1 -9.68794859465947  4.35528394239424 -5.27733293559356
 1 -8.10882039143914  4.98337808320832 -4.67149710471047
 1 -8.10757060606061  3.14689404820482 -4.87965789058906
 1 -8.24831242084208 -0.95400594349435 -4.81713271157116
 1 -7.96081706470647 -2.69631303640364 -4.28936157315731
 1 -9.47952803230323 -1.78050487388739 -3.50776768346835
 1 -4.16354371177118 -3.98151297789779 -1.21533482038204
 1  2.58524965796580 -6.13771171417142  0.75819177607761
 1  2.14167491089109 -5.19504648074807 -0.63211666126613
 1  3.75770789308931 -4.36857613941394  1.88195320292029
 1  2.88946393309331 -3.48084370547055 -1.35060760176018
 1  3.89461407470747 -1.90337389668967 -1.61550402090209
 1  4.44315648964897 -4.00733446264627 -2.15397432333233
 1  5.19460950185019 -1.52701912591259  0.45392727622762
 1  5.16552507980798 -2.61571320372037  1.85508038833883
 1  6.85968349504950 -3.84487767986799  0.11373925792579
 1  6.76354651505151 -2.70274788378838 -0.98827942344234
 1  7.43930286158616 -0.75228855395540  0.61439868536854
 1  7.95406750965097 -1.98316489958996  1.73415780108011
 1  8.67329143844384 -1.70741901710171 -1.05717905600560
 1  8.64492901160116 -4.29548832023202 -0.06233002540254
 1  10.53817315811581 -3.81900610271027 -0.41150126362636
 1  9.78054711611161 -3.42817390889089  1.24039448214821
 1  9.46612576317632 -0.01535580938094  0.49580494429443
 1  10.24209430693069 -1.04722125602560  1.64187372737274
 1  11.86695183648365 -1.78739877177718 -0.12052642584258
 1  11.11769785648565 -0.71372427732773 -1.34862619621962
 1  11.64597563106311  1.21750617981798 -0.27348690389039
 1  12.34684950825082  0.24957614901490  1.00392867306731
 1  13.30271707240724  0.71062549484949 -1.68819105780578
 1  14.61442078037804 -0.88310652335233  0.50145582558256
 1  13.86263183418342 -1.51442045834583 -0.84963128462846
 1  15.33639462786279 -0.41107430563056 -1.21276816931693
 1  13.23814200840084  2.67128174727473 -0.19806159385939
 1  14.57320402070207  1.71854214341434  0.86704391829183
 1  16.09459111491149  1.34789340204020 -0.95080157085709
 1  15.20293587698770  2.05232914571457 -2.03293467316732
 1  15.26155756035604  4.35254063206321 -0.97476947504750
 1  16.01844461456146  3.49182582398240  0.42947284768477
 1  18.01114479587959  3.27439893109311 -0.86418549814982
 1  16.49346006640664  4.93217974687469 -2.97674003380338
 1  18.04902082558256  4.38958847214722 -3.30733533863386
 1  16.75732593279328  3.08509957995800 -3.15576361096110
 1  17.85413146034603  5.36412763026303  0.57695936013601
 1  19.18138566086609  5.15729988218822 -0.71430834523452
 1  17.55912746364636  6.17583708680868 -0.81891595289529
 1 -4.96146144754475 -7.68228766186619  0.07478394069407
 1 -6.55565999629963 -7.04670175677568  0.72709621712171
 1 -4.88260642924292 -6.91751332693269  1.40277473407341
 8 -7.96276386798680  6.85831233203320 -0.39752753675368
 1 -9.09714801190119  6.30305595049505 -2.07667335013501

