%nproc=4
%Mem=2GB
# td=(NStates=1) iop(3/107=0140000000,3/108=0140000000) iop(3/107=0140000000,3/108=0140000000) CAM-B3LYP/6-31G(d,p) 

TD

0 1
12 -6.89153172527253  0.55154429852985  0.30324794429443
 6 -4.64970207670767 -2.02844126592659  0.58197847484748
 6 -4.35467728312831  2.93756538963896  1.02820570217022
 6 -9.09529223392339  3.08506253035304 -0.28200770247025
 6 -9.39377747534754 -1.85191822142214 -0.60493055175518
 7 -4.83400847274727  0.46996639433943  0.77457648974898
 6 -3.98734600020002 -0.71672137893789  0.74647520292029
 6 -2.57310072867287 -0.37751951115111  0.94060612291229
 6 -2.51944190999100  1.06084623342334  1.33241540404040
 6 -4.08081434433443  1.52975306050605  1.12250702540254
 6 -1.99609589528953  1.29204100000000  2.81297586038604
 6 -1.55146389478948 -0.51757432083208 -0.16777545124512
 6 -0.12318043634363 -0.59305101170117  0.47499657315732
 6  0.95980705990599 -0.95312254915492 -0.67349552335234
 8  0.69027909600960 -0.68226083858386 -1.95747673787379
 8  1.89622990959096 -1.73977427602760 -0.31060598309831
 7 -6.69402114431443  2.54672504250425  0.37190093799380
 6 -5.68004856575658  3.41271991519152  0.68968526472647
 6 -6.05536975217522  4.83464314911491  0.69019388798880
 6 -7.35630634403440  4.79548563906391  0.13435001830183
 6 -7.88128983288329  3.51878068646865 -0.01782695129513
 6 -5.07334225452545  5.86314374487449  1.06364403240324
 6 -8.11722328362836  6.14031095119512 -0.13604408070807
 8 -7.68755267146715  7.12667428402840  0.19616747354735
 7 -8.86729028252825  0.45046590579058 -0.25685833493349
 6 -9.71002467486749  1.63555829112911 -0.36799785208521
 6 -11.08229485978598  1.32684255535554 -0.88467424862486
 6 -11.04705906340634 -0.02947204280428 -0.98669952545254
 6 -9.77710937423742 -0.53964212741274 -0.59046112281228
 6 -12.12401917721772  2.33590978407841 -1.08870352115211
 6 -12.11101422192219 -0.93240680298030 -1.46739487318732
 6 -12.19303616571657 -0.90808297349735 -3.04450724542454
 7 -7.03087957085709 -1.49852241354135  0.10749810531053
 6 -8.04813747534753 -2.33920391709171 -0.35779897789779
 6 -7.41911949704970 -3.58763608600860 -0.65257626772677
 6 -6.05593121432143 -3.53798295919592 -0.14763302390239
 6 -5.97969425812581 -2.22318113261326  0.23324950925093
 6 -8.18323684718472 -4.87332471027103 -0.86670948684868
 6 -4.91849805430543 -4.41748754685469 -0.00146212051205
 8 -4.87865961466147 -5.48566910521052 -0.23009250265027
 6 -3.77389111451145 -3.28806936613661  0.55507015421542
 6 -3.28133164406441 -3.70999717521752  1.91734144714471
 8 -3.83578881898190 -4.00213694849485  3.03049171897190
 8 -2.02635431033103 -3.41667797309731  1.80725066426643
 6 -1.29131765386539 -3.87878296839684  2.91739616481648
 6  3.02745463826383 -2.10820599749975 -1.27273851795179
 6  4.17036080348035 -1.29095609670967 -0.83825935823582
 6  5.10540129552955 -0.75441231263126 -1.61958816041604
 6  5.14399838363836 -1.20686382108211 -3.22120910311031
 6  6.21306513111311  0.10268261536154 -0.96668322682268
 6  7.56908560256026 -0.65854163626363 -0.96989372667267
 6  8.62586514681468  0.36764239883988 -0.37325580608061
 6  9.82090517991799 -0.36002292259226  0.15590728502850
 6  9.43648116441644 -1.10055887058706  1.46020038883888
 6  11.07124945494549  0.54899975417542  0.41673651205120
 6  12.42395766626663  0.02073338053805  0.37416572777278
 6  13.61607314991499  0.94872214691469  0.55938883728373
 6  15.05372170737074  0.00600387848785  0.60116477857786
 6  15.28721370947095 -0.80659293979398  2.17610753475348
 6  16.02640226862686  1.08412331433143  0.22967617291729
 6  17.47049652775278  0.50957618201820 -0.22213908780878
 6  18.56878642604261  1.56365355655566 -0.33647379417942
 6  20.02129433053305  0.86899539433943 -0.76458654235424
 6  19.84798459975998  0.37521295159516 -2.16337212841284
 6  21.10121729062906  2.14259567756776 -0.65893098899890
 1 -3.73537417571757  3.79510076107611  0.99436883858386
 1 -9.52477646014601  4.00875996109611 -0.42389602350235
 1 -10.04549704130413 -2.75648604790479 -1.16108893479348
 1 -2.28616113291329 -1.11463908170817  1.89421947024702
 1 -1.79291863046305  1.50756123232323  0.65976242964296
 1 -0.99647103080308  0.87697601200120  2.85269598069807
 1 -2.09370754465447  2.25132370877088  2.91681779957996
 1 -2.47020935343534  0.68226611191119  3.53046891599160
 1 -2.04015303560356 -1.11937321032103 -0.78367615441544
 1 -1.57978314731473  0.43462198929893 -0.74557434823482
 1  0.22873087138714  0.46226479317932  0.91791765696570
 1  0.00303658385839 -1.65304163796380  1.24626485858586
 1 -4.19626415681568  5.37692552045204  0.62513747144714
 1 -5.25077535813581  6.93500617651765  0.94615152125213
 1 -4.73121414961496  5.90244920592059  2.36337410971097
 1 -8.98194120822082  5.94189929912991 -0.70814719051905
 1 -12.05511506510651 -1.97218808630863 -1.10706513371337
 1 -13.18065428042804 -0.79600320052005 -1.15544318071807
 1 -13.21738956205621 -1.60897301270127 -3.30789790689069
 1 -12.11432839663966  0.18536595809581 -3.81903407290729
 1 -11.20898772317232 -1.47788110511051 -3.34589119651965
 1 -8.24791397469747 -4.91216777237724 -2.06852908090809
 1 -7.74780999559956 -5.89726973957396 -1.12842249414941
 1 -9.12861014101410 -5.35316727792779 -0.20627601810181
 1 -3.02134171557156 -3.18774249914991 -0.18259656645665
 1  3.28709032443244 -3.41724899869987 -1.26411212831283
 1  2.73289757855786 -2.25991190619062 -2.41853208850885
 1  4.06850417811781 -0.93221596999700  0.13777737933793
 1  4.25743880088009 -1.45009848234823 -3.70938105310531
 1  6.06719029742974 -0.67791646704670 -3.96846807070707
 1  5.45944977237724 -2.34810742504250 -2.96304048784879
 1  6.38013843574357  1.05992132953295 -1.97794041124112
 1  5.88005311471147  0.56278182598260  0.07660339693970
 1  7.53593477237724 -1.69196739383938 -0.21242952135214
 1  7.90075547394739 -1.12066085638564 -2.08764824072407
 1  8.87918004940494  0.92966356115612 -1.14217700300030
 1  8.31762026012601  0.76082127032703  0.30410611901190
 1  10.37773022012201 -1.18005544924492 -0.34852200980098
 1  8.59025126942694 -1.88838765446545  1.15022338313831
 1  10.14943101250125 -1.36296017721772  1.83684557595760
 1  9.24740795239524 -0.49948117051705  1.92376368146815
 1  10.74931856965697  1.61092385228523  0.05672850125013
 1  11.13751349794980  0.62792166776678  1.38810269056906
 1  12.31677922012201 -0.69619205870587  1.12523620692069
 1  12.65222737673767 -0.69280750135013 -0.22992599009901
 1  13.66130100010001  1.52506205120512 -0.44795369997000
 1  13.54822686748675  1.41768601990199  1.47880366976698
 1  15.12259368516852 -1.01072858885889 -0.23771196239624
 1  15.21372127202720 -0.15664526902690  2.88685145814581
 1  14.44725199869987 -1.48563623552355  2.52532003010301
 1  16.40482751585158 -1.51111469456946  2.08693517121712
 1  15.54483561846185  1.75214520792079 -0.40486046074607
 1  16.30432446504651  1.62388192369237  1.22208053125313
 1  17.73179449454945 -0.11399822922292  0.67863805050505
 1  17.11832935713571 -0.06977880868087 -1.25736711411141
 1  18.34374938203820  2.17220376817682 -1.29146213451345
 1  18.66178617471747  2.27421132803280  0.50471714221422
 1  20.14989755095510  0.09783262946295 -0.11378802800280
 1  19.59475779377938  1.19858490809081 -2.70074219941994
 1  20.56802109210921 -0.09366116791679 -2.50610474387439
 1  18.79741246824683 -0.17047476587659 -2.50028810351035
 1  20.92282906150615  2.55723530263026  0.06910766436644
 1  22.15460320062006  1.51534811751175 -0.87164987998800
 1  20.73358001090109  2.92524001120112 -1.28392318861886
 1 -0.41906753185319 -3.51260400980098  2.85818416641664
 1 -1.24314399539954 -5.11529880358036  3.36564720132013
 1 -1.58780279357936 -3.35553403050305  3.99291344454445
 8 -11.99975835013501  3.68290308950895 -1.26488830253025
 1 -13.01893240474048  1.63252449254925 -1.40549115411541

