%nproc=4
%Mem=2GB
# td=(NStates=1) iop(3/107=0140000000,3/108=0140000000) iop(3/107=0140000000,3/108=0140000000) CAM-B3LYP/6-31G(d,p) 

TD

0 1
12 -6.72867543964396  0.58434757885789  0.34358197769777
 6 -4.60948805530553 -2.14686310811081  0.45003528052805
 6 -4.07301911731173  2.74660629372937  0.92203508510851
 6 -8.91362406710671  3.17045106920692 -0.04620412211221
 6 -9.42150024762476 -1.63995702530253 -0.27786784548455
 7 -4.69490456235624  0.35273467116712  0.60459949204921
 6 -4.07939520512051 -0.87453716051605  0.59792034743474
 6 -2.54622804140414 -0.65448720792079  0.89615167746775
 6 -2.38861882768277  0.84519466826683  1.19819198169817
 6 -3.89646590949095  1.32695278047805  0.86681145584558
 6 -2.05341162686269  1.20302209810981  2.63960852365237
 6 -1.64666341474147 -1.03169573297330 -0.32833150685069
 6 -0.22830094839484 -1.25365707230723  0.14194326782678
 6  0.71657273647365 -1.55668290519052 -1.11671984578458
 8  0.48048811691169 -1.10607321982198 -2.15416640684068
 8  1.81985227182718 -2.13269356795680 -0.57030195269527
 7 -6.51389313151315  2.55694606460646  0.36981072897290
 6 -5.40291085198520  3.26646528972897  0.64714101030103
 6 -5.72133634883488  4.77673735853585  0.68436330493049
 6 -7.07096781018102  4.88745483598360  0.17545412871287
 6 -7.57368907280728  3.60335914431443 -0.00752592119212
 6 -4.71262618291829  5.84934236473647  0.90629829782978
 6 -7.79663122442244  6.07233415351535  0.03517304100410
 8 -7.32110602680268  7.32769438603860  0.10682853965397
 7 -8.81757531103110  0.76731759095910 -0.06566921602160
 6 -9.49392306470647  1.85549028432843 -0.38581963426343
 6 -10.72938956925693  1.73242311341134 -0.73671945314531
 6 -11.08098245574557  0.29050995539554 -0.59080993649365
 6 -9.64241590489049 -0.24484264746475 -0.33757583428343
 6 -11.89738651395139  2.59871606470647 -1.00540519131913
 6 -12.11999512001200 -0.67541110341034 -1.07088522222222
 6 -12.11766862896290 -0.66722888808881 -2.46549934463446
 7 -7.00651713461346 -1.51449401070107  0.07093444894489
 6 -8.19403206480648 -2.30621061776178 -0.16165936393639
 6 -7.79979756485649 -3.69848717111711 -0.28961997209721
 6 -6.38620424162416 -3.64543370427043  0.04299603900390
 6 -6.02242853155315 -2.38880769526953  0.32409859415942
 6 -8.64929345284528 -4.80016739453945 -0.80717353325333
 6 -5.17960416491649 -4.43971977007701  0.14359238493849
 8 -4.96911866056606 -5.60064060236024  0.01347185378538
 6 -4.02490621602160 -3.46733729292929  0.42918756595660
 6 -3.31119463036304 -3.75295147064706  1.74934464746475
 8 -3.89666490659066 -4.04577131193119  2.78837750755075
 8 -1.91751342624262 -3.66762306760676  1.69532947214721
 6 -1.14247276937694 -4.03992908300830  2.88142256745675
 6  2.95829772257226 -2.44530970787079 -1.57105834993499
 6  3.95745951335134 -1.34122112321232 -1.22467800010001
 6  4.99262001740174 -0.98710558195820 -1.91902810441044
 6  5.29348333213321 -1.57381051575158 -3.39365634783478
 6  6.02742656725673 -0.01353900680068 -1.42925948444844
 6  7.22597129112911 -0.77987376947695 -0.95379211651165
 6  8.44853741404140  0.15760139473947 -0.54782326282628
 6  9.76120921032103 -0.38198511881188  0.00800249454945
 6  9.77305482178218 -1.12779159385939  1.35976034483448
 6  10.76223855385539  0.77735258945895  0.03820865926593
 6  12.18835410591059  0.09799110631063  0.07516582778278
 6  13.36654819741974  1.00483775847585  0.24236713511351
 6  14.69699603480348  0.30911418951895  0.52926758885889
 6  14.72648763686369 -0.21424370487049  1.99185910991099
 6  15.87317694609461  1.47797269926993  0.20493369866987
 6  17.36838631673167  1.04481970637064  0.10513363946395
 6  18.57725727312732  1.96701389258926  0.06120597379738
 6  19.96134833593359  1.23571206600660 -0.24109419311931
 6  20.01306110741074  0.71850728102810 -1.66154194539454
 6  21.07495466436644  2.31185260326033  0.08499340344034
 1 -3.18086872517252  3.52845409640964  1.08984838653865
 1 -9.78040202270227  4.00482956805681 -0.38998263216321
 1 -10.26544903650365 -2.29843024232423  0.06137331143114
 1 -2.10431294809481 -1.38499611741174  1.79981002930293
 1 -1.62633197179718  1.43328380458046  0.61697815121512
 1 -0.69506088978898  0.96914522892289  2.77298800990099
 1 -2.11650982488249  2.37750632703270  2.59091520932093
 1 -2.77676000850085  0.70256814211421  3.54793066216622
 1 -2.02303132343234 -1.94565583858386 -0.91967975477548
 1 -1.86642181118112 -0.41683315621562 -1.25674546534653
 1  0.14944294259426 -0.58917035033503  0.91301716691669
 1 -0.09993371317132 -2.19124545834584  0.57487771987199
 1 -3.85745027542754  6.18192602050205 -0.18071311361136
 1 -5.20573085368537  6.84036671257126  1.08142504860486
 1 -3.83661468966897  5.47867682868287  1.71915968826883
 1 -8.88523153725373  5.93350846004600 -0.35643201900190
 1 -11.78944849844985 -1.83436430393039 -0.37062148934893
 1 -13.00344655965596 -0.34813841404141 -0.91788942534253
 1 -12.89586740984099 -1.07670978637864 -2.76853397049705
 1 -12.15839280308031  0.27157457895790 -3.24458662816282
 1 -11.46357318171817 -1.24614793179318 -2.94983159055906
 1 -8.79385856915692 -4.65021157675768 -1.89169139713971
 1 -8.12204741934193 -5.81879189178918 -0.92133178507851
 1 -9.63702098209821 -4.92189415061506  0.06744135363536
 1 -3.22507208860886 -3.70916464136414 -0.21419972677268
 1  3.31138275367537 -3.54887216101610 -1.12358807590759
 1  2.72879716851685 -1.96524243924392 -2.51449168446845
 1  4.06430375807581 -0.59832258065807 -0.37423382178218
 1  4.03262631963196 -1.01452492499250 -4.17908802380238
 1  6.50274385278528 -1.07067574297430 -3.78970019391939
 1  5.01775560296030 -2.77959057335734 -3.29308349214921
 1  6.22058248014801  0.85238057545755 -2.61295391259126
 1  5.68301341074107  0.84531007880788 -0.49273353675368
 1  6.88117929682968 -1.21637983508351  0.01232295389539
 1  7.51767716611661 -1.77677646794680 -1.70732020792079
 1  8.89309144054405  0.99331992679268 -1.51252403770377
 1  8.02972147024702  1.07563275147515  0.14611031943194
 1  10.22787523462346 -1.41021846554655 -0.98145530313031
 1  9.02522476677668 -1.84063287898790  1.22131049184919
 1  10.68306437583758 -1.48638251945194  1.63832572397240
 1  9.21706491809181 -0.33514473687369  2.26417772287229
 1  10.68956259405940  1.71260402030203 -0.95588275987599
 1  10.41238098469847  1.40353922952295  1.12968684898490
 1  12.26309385158516 -0.30274271377138  1.11521520482048
 1  12.18907106110611 -0.87878609920992 -0.83407640514051
 1  13.57696256625663  1.84623416841684 -0.82476138073807
 1  12.76041808660866  1.96250050135014  1.11566735613561
 1  14.79782120792079 -0.68155567156716 -0.15547373857386
 1  14.59223912381238  0.62856325182518  2.95298807180718
 1  13.65641291479148 -0.95594326622662  2.42533003110311
 1  15.46320335343534 -0.78263184628463  1.74227070477048
 1  15.46282741764176  1.77483747714772 -0.92332230693069
 1  15.76139017161716  2.39259879537954  0.97257558075808
 1  17.43428474357436  0.54845801640164  1.00792097879788
 1  17.58817634183418  0.23225139433943 -0.68790016741674
 1  18.49289429652966  2.73754030183018 -0.61102409070907
 1  18.66725672177218  2.57331123802380  0.90277694819482
 1  19.90543310451045  0.17383022922292  0.62371572237224
 1  19.91163948194819  1.48241329092909 -2.50686281148115
 1  21.26974126412641  0.42658085628563 -1.55331946534653
 1  19.27925065206521  0.01814409600960 -2.00421849654966
 1  21.16902368096810  2.30712029112911  1.29768052165216
 1  22.09607734803480  2.03470005270527 -0.11247396239624
 1  21.02495914881488  3.44606209340934 -0.40982577887789
 1 -0.04494011911191 -4.50886363576358  2.03958230623062
 1 -1.58187786878688 -5.05437271097110  3.56834747134713
 1 -0.77432144544454 -3.02440091719172  3.50823497669767
 8 -11.54003237753775  3.86901170037004 -1.07673948764876
 1 -12.71634214571457  2.05055629572957 -1.13685429042904

