%nproc=4
%Mem=2GB
# td=(NStates=1) iop(3/107=0140000000,3/108=0140000000) iop(3/107=0140000000,3/108=0140000000) CAM-B3LYP/6-31G(d,p) 

TD

0 1
12 -6.87079965206521  0.59800894499450  0.21930955045505
 6 -4.42164927142714 -1.91844026582658  0.47922819981998
 6 -4.12306412181218  2.75456708980898  0.98037091869187
 6 -9.02227493219322  3.21514553865387 -0.10360986268627
 6 -9.27059515711571 -1.74780781038104 -0.51640169886989
 7 -4.80380545244524  0.33697309500950  0.74444347644764
 6 -4.03981124672467 -0.86509621642164  0.78696925232523
 6 -2.50990440904090 -0.65679743894389  1.01248331063106
 6 -2.43450341614161  1.00824097289729  1.18335049754975
 6 -3.83430969386939  1.37931801700170  0.97035180988099
 6 -1.74403068876888  1.22086388228823  2.58051261406141
 6 -1.57386613501350 -0.99757232063206 -0.11449012271227
 6 -0.12543066136614 -0.99162086868687  0.28621769526953
 6  0.87974905410541 -1.19730696759676 -0.88728690249025
 8  0.81204127222722 -0.44289690219022 -1.85562655285529
 8  1.84052433903390 -1.97031733033303 -0.46392131463146
 7 -6.53172491469147  2.57483785378538  0.45106885478548
 6 -5.41920248114812  3.29094773797380  0.84328062426243
 6 -5.76148036323632  4.68111779657966  0.64869973857386
 6 -7.15372608600860  4.94600069056906  0.49867645094509
 6 -7.77560926482648  3.50029883828383  0.31408624002400
 6 -5.16168108840884  5.73547097759776  1.07912558055806
 6 -8.21032259355936  6.05350227032703  0.46221574527453
 8 -7.58526244244424  7.22116373297330  0.26032388918892
 7 -8.82251580508051  0.65064592379238 -0.25100774987499
 6 -9.58632230463046  1.83332806810681 -0.41641269356936
 6 -10.87654428472847  1.57096696779678 -0.80992677387739
 6 -10.85321967946795  0.08963986838684 -1.02836369186919
 6 -9.54904656795680 -0.41219938313831 -0.66844892159216
 6 -11.99226600190019  2.48257445054505 -1.19762441324132
 6 -12.00884400490049 -0.63355691799180 -1.49310744444444
 6 -12.08378524062406 -0.83251541674167 -3.11748454315432
 7 -6.98761524442444 -1.44766732803280  0.21353870937094
 6 -8.08944160576057 -2.25447544424442 -0.23473667166717
 6 -7.62278986408641 -3.62618994139414 -0.26917792789279
 6 -6.25438105930593 -3.64461362226223 -0.08603686428643
 6 -5.96289257795780 -2.30129894439444  0.26086227052705
 6 -8.45533405690569 -4.76772415021502 -0.79341215711571
 6 -4.92181838633863 -4.39840563866387  0.03567159285929
 8 -4.67704945364536 -5.64194473277328  0.11898240484048
 6 -3.87742146754675 -3.39248980818082  0.56106075327533
 6 -3.27762127302730 -3.72427860336034  1.88493820682068
 8 -3.82592783288329 -3.92732946774677  2.94699336913691
 8 -1.97093876877688 -3.64208051335134  1.84027396659666
 6 -1.22949147124712 -3.73118820892089  3.11867629282928
 6  2.86158805160516 -2.20583576047605 -1.31437268136814
 6  3.99778354575458 -1.19422642374237 -1.13039857215722
 6  5.09727048244824 -1.08048491989199 -2.04353055465547
 6  5.29929391319132 -1.70746388108811 -3.41393837603760
 6  6.13030685528553 -0.03769142204220 -1.82504906340634
 6  7.31124981898190 -0.73223900600060 -1.28937567486749
 6  8.43316587688769  0.35756139073907 -0.92146062656266
 6  9.71225431483148 -0.29698661896190  0.00374206850685
 6  9.37050456675668 -0.64639345404540  1.49463383218322
 6  10.93654598459846  0.73836869106911 -0.30478564016402
 6  12.15425069556956 -0.00813950675068  0.22327063826383
 6  13.38889043164316  0.95151242594259  0.01112401080108
 6  14.79705604080408  0.13871714981498  0.55530019211921
 6  14.86329131723172 -0.18146042654265  2.20889081308131
 6  15.82552218061806  1.25405030703070  0.17815102040204
 6  17.29752923102310  0.75688091249125  0.07827095319532
 6  18.47529707710771  1.74339153035304 -0.04441458825883
 6  19.78387058815882  0.93272176697670 -0.27906799049905
 6  19.86401620292029  0.19452488278828 -1.54771056225623
 6  21.05905307420742  1.91450286828683 -0.02555765166517
 1 -3.32504314261426  3.72265351635164  1.14078348004800
 1 -10.06200018251825  4.13904298939894 -0.13796743064306
 1 -10.23206569816982 -2.67525792509251 -0.78642146804680
 1 -2.26924944174418 -1.25819343714371  1.86916696499650
 1 -1.75532487108711  1.47302777897790  0.34459091249125
 1 -0.64637602130213  1.25015332973297  2.59059977107711
 1 -1.69739791369137  2.13861243764376  2.73248936673667
 1 -2.21568390089009  0.62772065736574  3.64830069916992
 1 -1.77560658095810 -2.02362363536354 -0.53284107090709
 1 -1.52309747874788 -0.45632710561056 -1.10052984378438
 1  0.33712171047105  0.35248381508151  0.56634249944994
 1  0.20318659885989 -1.67288362216222  1.18222845494549
 1 -4.26484101450145  5.95761358925893  0.15729068676868
 1 -5.53909419001900  6.72718539443945  1.27842474857486
 1 -4.85854688288829  5.39674863586359  2.03227099939994
 1 -9.55070808490849  5.95243035223522  0.36441006520652
 1 -11.91370092369237 -1.53162402990299 -0.87283171037104
 1 -13.02554876987699 -0.24485808600860 -1.46169380578058
 1 -12.79984780788079 -1.65645776117612 -3.42401951905190
 1 -12.41147811161116  0.10568799029903 -3.60331250075008
 1 -11.00402722712271 -0.98024134113411 -3.61821842924292
 1 -8.60155933923392 -4.57255381098110 -1.75601782978298
 1 -7.61623683828383 -5.65587560016002 -0.57298695059506
 1 -9.53952123212321 -5.54083604480448  0.00298490799080
 1 -2.96187576897690 -3.49121284618462 -0.31166947374738
 1  3.01700331573157 -3.20886816061606 -1.24574029112911
 1  2.32339662846285 -1.93035895089509 -2.34941517681768
 1  4.11784911261126 -0.84755750415041 -0.36556295469547
 1  4.77111016801680 -1.26803027552755 -4.00117023202320
 1  6.38097167556756 -1.79990866626663 -3.55184640854086
 1  4.67172099949995 -2.80462307660766 -3.58079226302630
 1  6.34711513341334  0.51291662906291 -2.75180779797980
 1  5.70901601100110  0.64695024282428 -0.99424368776878
 1  7.08350952985299 -1.18107630473047 -0.81800007840784
 1  8.00855625402540 -1.24509329962996 -1.91822129802980
 1  8.93650578197820  0.59065966076608 -1.88527131243124
 1  8.16156465456546  0.92167735593559 -0.10854514611461
 1  10.02699514661466 -1.18790623432343 -0.67764492209221
 1  8.73920616491649 -1.21992080778078  1.70750911171117
 1  10.32120819021902 -0.98696257745775  2.19651154255425
 1  8.89655286688669  0.31481025862586  2.42825413051305
 1  10.75247888568857  1.21111387128713 -1.40882805440544
 1  10.58323807040704  1.73185206080608  0.21855573587359
 1  11.58879642184218 -0.50806324582458  1.40872455575558
 1  12.36764891889189 -1.18294651525153 -0.34759775727573
 1  13.58257312731273  1.61721126612661 -1.19819872447245
 1  13.44299634443444  2.26456070737074  0.58787457685769
 1  14.87720914671467 -0.58187570357036 -0.03351154235424
 1  15.05425532543254  0.82438283378338  2.89216198919892
 1  13.96838411191119 -0.65896356825683  2.74949244734473
 1  15.84199123222322 -0.86660024312431  2.29348582628263
 1  15.80328146304630  1.70654064746475 -0.74295427012701
 1  16.03592762536254  2.10631016651665  0.87402572577258
 1  17.50640195529553 -0.01372820222022  0.78386857355736
 1  17.27489501370137  0.31393956315632 -0.93197457485749
 1  18.18031303840384  2.29772632043204 -0.72151513981398
 1  18.50402039813982  2.10933484038404  0.94243091359136
 1  19.55111767296730  0.10151299749975  0.45504885568557
 1  20.35899421742174  1.26764181378138 -2.48127025222522
 1  20.74584887488749 -0.73592539433943 -1.71936607000700
 1  18.66077880488049 -0.24425214361436 -1.50037811251125
 1  21.51832861146115  2.61985156425643  0.74763551715171
 1  21.84929266956696  1.54468105080508 -0.45082779777978
 1  20.64935158805881  2.78511599879988 -0.73635843214321
 1 -0.43462908800880 -3.71958470787079  2.46256460446044
 1 -1.38218789978998 -4.71988926262626  3.70499113571357
 1 -0.99858387168717 -3.33024150125012  3.88042219541954
 8 -11.87222559685969  3.61116591579158 -0.94945675937594
 1 -13.02121263276328  1.96887812791279 -1.64283488848885

