%nproc=4
%Mem=4GB
# td=(NStates=1) iop(3/107=0140000000,3/108=0140000000) iop(3/107=0140000000,3/108=0140000000) CAM-B3LYP/6-31G(d,p) 

TD

0 1
12 -5.66918842544254  1.19532440674067  0.23018162336234
 6 -4.97940832803280 -2.06367483078308 -0.35718258505851
 6 -3.33218200730073  1.21258154295430  2.79232460576058
 6 -6.16785558125813  4.44512777697770  0.65130533933393
 6 -8.00389615671567  1.13848469916992 -2.43843151665167
 7 -4.31585583888389 -0.26723491529153  1.03189452825283
 6 -4.17048057555756 -1.55972967456746  0.69794214381438
 6 -3.20208333283328 -2.27044034683468  1.51555591929193
 6 -2.79414258525853 -1.27487037793779  2.64574113021302
 6 -3.52304973237324  0.00882825512551  2.16233081828183
 6 -3.14922796219622 -1.65735917731773  4.12175487488749
 6 -1.99769496269627 -2.70836824612461  0.65556086158616
 6 -0.99905154865487 -3.58412599319932  1.43238682668267
 6  0.20451555205521 -3.92127596829683  0.68802699739974
 8  0.51897196149615 -3.52789010261026 -0.42124835903590
 8  1.02309915561556 -4.88654827212721  1.31305591289129
 7 -4.80766158245825  2.56399577647765  1.45944617631763
 6 -3.91608369816982  2.45915333703370  2.46200680398040
 6 -3.70940044374437  3.73642214441444  3.15649620582058
 6 -4.56400695339534  4.64089561786179  2.51334060536054
 6 -5.22575868006801  3.91826992219222  1.45328142044204
 6 -2.82032739583958  3.77084446024602  4.37869205860586
 6 -4.58422495309531  6.00930835133513  2.91457096189619
 8 -3.88474852285229  6.55580346834683  3.74849874977498
 7 -6.85415921582158  2.71862175797580 -0.77642929922992
 6 -6.93213592839284  3.96074569176918 -0.39087077577758
 6 -7.96168135453545  4.57138386318632 -1.19668377787779
 6 -8.37191664496450  3.71575850575057 -2.13581252565257
 6 -7.75148403890389  2.40493650245024 -1.84335028152815
 6 -8.31615460636064  6.00407031643164 -1.09961947074707
 6 -9.47227159045905  3.68227862606261 -3.21227586038604
 6 -8.99751120482048  4.00687883408341 -4.55002140614061
 7 -6.36432485148515 -0.06584160186019 -1.09449454145415
 6 -7.38019754935494 -0.06730279887989 -2.05152936363636
 6 -7.54954246144614 -1.39141084468447 -2.67968049064906
 6 -6.58956850565056 -2.12754232603260 -2.05572173787379
 6 -5.84786320172017 -1.34047761286129 -1.14506063646365
 6 -8.52492795059506 -1.65734586058606 -3.73429032523252
 6 -6.06344001110111 -3.46376196009601 -1.97571112621262
 8 -6.35738013351335 -4.48966666506651 -2.66585285038504
 6 -4.99888845094509 -3.47400545314531 -0.85931825162516
 6 -5.25664314171417 -4.51361680278028  0.17724139593959
 8 -5.73767953955396 -4.43407241534153  1.28517488088809
 8 -4.99671937013701 -5.76171736813681 -0.38224136873687
 6 -5.32889045324533 -6.90856270957096  0.39408123792379
 6  2.35578655185519 -5.13627474767477  0.66415036943694
 6  3.34228876387639 -4.11243140404040  0.89105700550055
 6  3.95088447864786 -3.23791666176618  0.07395103010301
 6  3.65387972687269 -3.32304724602460 -1.52504200870087
 6  5.10432685848585 -2.32083713131313  0.64815861466147
 6  6.45264013531353 -2.74934785998600  0.14440590799080
 6  7.56895221882188 -1.84991434693469  0.63948963946395
 6  8.93513433473347 -1.99131396499650 -0.08212599509951
 6  9.53819020072007 -3.46153679407941  0.12315885818582
 6  9.93518409750975 -0.94278451585159  0.47955047054705
 6  11.27012431483148 -0.81464107100710 -0.44799356555656
 6  12.11728941754175  0.33164779227923  0.04559140674067
 6  13.39943239903990  0.53192806270627 -0.60824558775878
 6  14.25955425442544 -0.81797119971997 -0.55818996989699
 6  14.14713065266527  1.78865503710371 -0.28855811061106
 6  15.54051824222422  2.16871489968997 -0.89748474347435
 6  16.00336292069207  3.42271702450245 -0.43965457865787
 6  17.31550679977998  3.93448128972897 -1.18199213441344
 6  17.09063165286529  3.94022891459146 -2.74902712691269
 6  17.72471187728773  5.34587985328533 -0.64718417731773
 1 -2.59942566536654  1.13256753215322  3.70067053545355
 1 -6.45989396819682  5.47125250565056  0.85543453515352
 1 -8.77303771097110  1.15972627552755 -3.25820129892989
 1 -3.77915898069807 -3.09951526692669  1.90691875267527
 1 -1.62703982788279 -0.93728138973897  2.48023930003000
 1 -2.61490126922692 -2.56828999019902  4.21753529752975
 1 -2.62233302600260 -0.86634653905391  4.83788581838184
 1 -4.39992250395040 -1.71235031593159  4.27708165866587
 1 -2.38672398609861 -3.17003652095210 -0.33341396519652
 1 -1.53154098649865 -1.83158227452745  0.41502962456246
 1 -0.77514294779478 -3.09269056465647  2.30649486818682
 1 -1.38627334893489 -4.52394952615261  1.72692449044904
 1 -1.86254636843684  3.24433395779578  4.25816172587259
 1 -2.65786677677768  4.71143834983498  4.86559281698170
 1 -3.30796379137914  3.15953695119512  5.25423042904290
 1 -5.28041110501050  6.64847904230423  2.13148847024703
 1 -9.97764689818982  2.74764542164216 -3.21492474417442
 1 -10.16806760466047  4.62959680378038 -3.01691198189819
 1 -9.99762956275628  3.85439385338534 -5.22725792809281
 1 -8.60498000740074  4.94763450885089 -4.60207016201620
 1 -8.18227807680768  3.23004236303630 -5.20027995279528
 1 -8.34218180778078 -1.13581412431243 -4.73524452275228
 1 -8.48513949694970 -2.63474687978798 -3.87577021402140
 1 -9.48796887638764 -1.79624644804480 -3.23140004670467
 1 -4.19129648704870 -3.90150497709771 -1.37203048994900
 1  2.60074120712071 -6.14281222422242  0.93020897779778
 1  2.26854759815982 -5.32185916201620 -0.43293674327433
 1  3.59588171047105 -4.01556083788379  1.96227123472347
 1  2.55088007470747 -3.51390701180118 -1.67058959996000
 1  3.85023963726373 -2.34930849014902 -1.85070754125413
 1  4.27636981098110 -3.99625335453545 -2.26089501540154
 1  4.86007604850485 -1.18455487948795  0.52564444794479
 1  5.04610313761376 -2.30691232363236  1.74413929422942
 1  6.71507903460346 -3.70653384548455  0.32576046004600
 1  6.47302746314631 -2.83332094109411 -0.96171676717672
 1  7.15671460276028 -0.89393271837184  0.53677092259226
 1  7.81819392229223 -2.06383296639664  1.60872525782578
 1  8.94257836713671 -1.96053432863286 -1.23701703980398
 1  8.79786430513051 -4.11039981138114 -0.45913970637064
 1  10.67673701450145 -3.52601680378038 -0.23272338583858
 1  9.55567462886289 -3.69846093759376  1.12505294799480
 1  9.39136828742874 -0.08237251105111  0.32060742454245
 1  10.11491158865887 -1.24674120802080  1.43293283328333
 1  11.76925206650665 -1.69862989488949 -0.09652402560256
 1  10.84302038873887 -0.64410731563156 -1.48257959155916
 1  11.51593262676268  1.19550397959796  0.08428887368737
 1  12.21674649794979  0.20457164856486  0.95344362456246
 1  13.02167896859686  0.82249668196820 -1.60624286298630
 1  14.17193653195319 -1.07895610831083  0.39761544154415
 1  13.78341391239124 -1.61141015731573 -0.92333865536554
 1  15.25178616701670 -0.79238243644364 -0.96421331383138
 1  13.38991718591859  2.78346296539654 -0.39028081578158
 1  14.37847454775478  1.38150844004401  0.80954816871687
 1  16.25658731453145  1.35186379907991 -0.94265075577558
 1  15.35071065446545  2.35161907470747 -1.88096947664766
 1  15.29138054265427  4.06112149014901 -0.59496149424942
 1  16.14209697979798  3.56122276367637  0.51426132653265
 1  18.17502118351835  3.11378286948695 -1.06786586618662
 1  16.27910863126312  4.75351188008801 -3.08310066986699
 1  17.91474739823983  4.28019753305330 -3.13117772287229
 1  16.86149634983498  2.99377044704470 -3.18758679327933
 1  17.67722376957695  5.29392060956096  0.47803946814681
 1  18.87851537383738  5.64628878107811 -0.97219413381338
 1  16.96017756865686  5.94593409650965 -0.77457151845184
 1 -5.02585788718872 -7.85296472957296 -0.07372090979098
 1 -6.48204263456346 -7.00398748534854  0.64028753625362
 1 -4.97437560616062 -6.87519909550955  1.55832028862886
 8 -7.79420701230123  6.86333283408341 -0.40135791979198
 1 -9.11192949004901  6.45858150305031 -1.81230691349135

