%nproc=4
%Mem=2GB
# td=(NStates=1) iop(3/107=0140000000,3/108=0140000000) iop(3/107=0140000000,3/108=0140000000) CAM-B3LYP/6-31G(d,p) 

TD

0 1
12 -6.53355592769277  0.74175331943194 -0.05257763826383
 6 -4.54753185968597 -2.10518894069407  0.55646592359236
 6 -4.20229204460446  2.84869650275028  0.84471735333533
 6 -8.87155986068607  3.25225925002500 -0.25068457015702
 6 -9.20325842344234 -1.68382141174117 -0.68100815951595
 7 -4.57733280518052  0.43478287598760  0.42817184928493
 6 -3.92620988658866 -0.76266597339734  0.40985154055406
 6 -2.48410182878288 -0.53288504770477  0.95987805010501
 6 -2.52098206400640  0.99973012181218  1.25543770627063
 6 -3.84472073497350  1.51962204740474  0.85010978567857
 6 -2.05613189888989  1.25600739663966  2.77369193199320
 6 -1.54380312871287 -0.98960152355236 -0.22959163286329
 6 -0.13427154545455 -1.36339804640464  0.24346341984198
 6  0.80219129832983 -1.34599183608361 -0.69143731753175
 8  0.84700476857686 -1.11551416391639 -1.98947993819382
 8  1.74774506110611 -2.36924722332233 -0.30108503100310
 7 -6.53428517071707  2.61600197019702  0.23418716661666
 6 -5.32048260916092  3.33961260446045  0.55549184538454
 6 -5.59412362756276  4.72531221602160  0.64617948654865
 6 -7.15252596599660  4.94355044554455  0.50641722502250
 6 -7.64370607450745  3.56394520292029  0.10766559795980
 6 -4.73219814011401  5.82881031153115  0.88204587258726
 6 -8.00222178347835  6.03379029912991  0.41662118581858
 8 -7.71276519271927  7.10102171877188  0.71103896069607
 7 -8.62125567906791  0.76097695689569 -0.45650829992999
 6 -9.53110678307831  1.88597333263326 -0.56210726302630
 6 -10.79017564786479  1.49300917201720 -0.79745552675268
 6 -10.82459681718172  0.24174507890789 -0.87034789028903
 6 -9.56311797509751 -0.26689485268527 -0.70920299699970
 6 -11.93366014131413  2.57289348244825 -0.83904855565557
 6 -11.92286540704070 -0.71461502380238 -1.38008614231423
 6 -11.89965682778278 -0.80602276747675 -2.81770456515652
 7 -6.81430791369137 -1.29830239153915  0.04338169366937
 6 -7.89813247484748 -2.19067906460646 -0.33553675167517
 6 -7.67971555665567 -3.63820114251425 -0.26799780988099
 6 -6.28200382158216 -3.64389355025503  0.11594333373337
 6 -5.79902619131913 -2.14421323582358  0.16255243954395
 6 -8.48528705220522 -4.85337271507151 -0.64853766966697
 6 -5.17380358485849 -4.37113291139114  0.35339336503650
 8 -5.08462021072107 -5.52373291159116  0.30333083968397
 6 -3.82657638303830 -3.37517807700770  0.50975562276228
 6 -3.41217472837284 -3.74090026552655  1.80377009000900
 8 -3.70141538163816 -3.83439017381738  2.94135280508051
 8 -1.81016269116912 -3.62844915021502  1.67387732693269
 6 -0.77248577067707 -4.01532662276228  2.78457288248825
 6  2.99350124292429 -2.36459163606361 -1.26185742984298
 6  4.12356612401240 -1.39851685278528 -1.07021255355536
 6  5.01528228362836 -1.00727759915992 -1.82661886348635
 6  4.99632361616162 -1.57894102880288 -3.30719770197020
 6  6.04067789238924 -0.07213486638664 -1.59985654415442
 6  7.48238693269327 -0.86886266836684 -1.03719045634563
 6  8.38219077937794  0.19998563316332 -0.34196267676768
 6  9.53241633103310 -0.61327824812481 -0.08260656635664
 6  9.30255777207721 -1.44363317801780  1.07608197699770
 6  10.68217054705470  0.51138599279928  0.10694553295330
 6  12.19948521902190 -0.18678737153715  0.30664897609761
 6  13.30869241184118  0.87607488218822  0.21553445184518
 6  14.63530986618662  0.23900717881788  0.59232389448945
 6  14.64905989408941 -0.14294657515752  2.10671059505951
 6  15.79350897929793  1.28190309230923  0.09695290059006
 6  17.06847632573257  0.73195842024202  0.00830395649565
 6  18.05613516091609  1.86536372757276 -0.19135928272827
 6  19.54963716481648  1.44643313811381 -0.23724380808081
 6  19.86550635193520  0.70275570587059 -1.59184497569757
 6  20.48815598449845  2.56468788678868 -0.13429852575258
 1 -3.34850548884889  3.47343859485949  1.35327472917292
 1 -10.02125610811081  4.08818790389039 -0.18305193909391
 1 -9.65789828142814 -2.09634003330333 -1.02372519841984
 1 -2.38808132493249 -1.09649726752675  1.86915696399640
 1 -1.50518985758576  1.49503998019802  0.62427888128813
 1 -1.04832621632163  0.99458777317732  3.26006671777178
 1 -2.03113128702870  2.19633821022102  3.10071618941894
 1 -2.83532586508651  0.81869975527553  3.21963783288329
 1 -2.44955397569757 -1.84753602660266 -0.97695548234824
 1 -1.33233840284028  0.17765629272927 -0.79351914271427
 1  0.28204620292029 -0.59091052435244  0.76450231543154
 1 -0.00095381518152 -2.27515384918492  0.90895112721272
 1 -3.90471500190019  5.91815964386439  0.33887884558456
 1 -5.24926520712071  6.72778545444544  1.05075198129813
 1 -4.51049207740774  5.63653261426143  1.74604237653765
 1 -8.92619563366337  5.82915802500250 -0.20420679647965
 1 -11.50732028562856 -1.75592646014601 -0.85555998319832
 1 -12.95880209520952 -0.59629322952295 -1.17112474887489
 1 -13.06142396549655 -1.34540665606561 -3.03515063216322
 1 -11.85380234403440  0.10258768026803 -3.29959212871287
 1 -11.09167599199920 -1.49496281328133 -3.04478108550855
 1 -9.23517270057006 -4.45112166776678 -1.25961818981898
 1 -7.49911512611261 -5.67434744734473 -0.90798044994499
 1 -9.24587186718672 -5.42533449464947  0.46492110161016
 1 -3.07912749414942 -3.44320804570457 -0.19222752955296
 1  3.60856247164716 -3.47010428422842 -1.20793651075107
 1  2.69611390019002 -2.15423133813381 -2.40098033333333
 1  4.24390171787179 -1.11895464386439  0.11887548914892
 1  4.13116617361736 -1.21170464296430 -3.80613072807281
 1  5.94195777417742 -1.30970964636464 -3.95892711661166
 1  4.72123595099510 -2.85389800410041 -3.18727291109111
 1  5.99249967186719  0.48688402580258 -2.36211882908291
 1  5.54223933333333  0.25306085388539 -0.50585484888489
 1  7.26226740564056 -1.73375157225723 -0.50283856225623
 1  7.66243164156416 -1.03338212851285 -2.05010448634863
 1  8.72112424382438  1.15663625842584 -1.37265005030503
 1  8.03601209930993  0.77724291249125  0.33381909030903
 1  10.06464891199120 -1.43198064176418 -0.59275643324332
 1  8.17299954425443 -1.93862267796780  1.09344770557056
 1  9.99876594599460 -2.43816769796980  1.07485937733773
 1  9.61277448904890 -0.85560678307831  1.91084238933893
 1  11.12513615141514  1.03528628852885 -1.44095126672667
 1  10.14413416001600  1.11590046564656  1.01589546984698
 1  12.36593413561356 -0.97194963446345  1.47285096839684
 1  12.43511566556656 -0.79734795539554 -0.66238923642364
 1  12.88466333633363  1.34008355335534 -1.00489939453945
 1  13.10806285108511  1.91447569886989  0.68978476787679
 1  14.53408483428343 -0.67873538953895 -0.14872306350635
 1  14.35342524242424  0.70884127962796  2.85654842784278
 1  14.10763803730373 -1.04808248014801  2.17924542264226
 1  15.88817585068507 -0.37533111621162  2.50370684838484
 1  15.57683881878188  1.80777077047705 -0.90950092479248
 1  15.78372240484048  2.28200773627363  0.82863118631863
 1  17.60535185028503  0.36928009860986  1.23812399909991
 1  17.38056558075808 -0.24425625642564 -0.66699807720772
 1  17.55800080718072  2.54880142794279 -1.13819680798080
 1  18.14230422652265  2.51374528142814  0.65914258475848
 1  19.83966652785278  1.19647249344935  0.88944229502950
 1  20.04631294929493  1.29707475707571 -2.50859298449845
 1  20.93156744674467  0.13302150035003 -1.63060719411941
 1  19.27254998199820 -0.07114483288329 -1.87150522522252
 1  20.39193597219722  3.11751133023302  0.63676443004300
 1  21.50318805910591  2.24981156385639 -0.19625234023402
 1  20.41777843074307  3.24102158935894 -1.02813761006101
 1  0.54799917481748 -4.11927467686769  2.55639398739874
 1 -0.70492017301730 -5.07066434013401  3.42505314191419
 1 -0.80634464776478 -3.21178965606561  3.64334848804880
 8 -11.87146552085209  3.89561436063606 -0.89672148584858
 1 -12.93129364086409  2.03021426152615 -0.72968357335734

