%nproc=4
%Mem=4GB
# td=(NStates=1) iop(3/107=0140000000,3/108=0140000000) iop(3/107=0140000000,3/108=0140000000) CAM-B3LYP/6-31G(d,p) 

TD

0 1
12 -5.48497000360036  1.27091196549655  0.17049565476548
 6 -5.03803419061906 -2.11586004930493 -0.35430229702970
 6 -3.45562435153515  1.18341862666267  2.78783415671567
 6 -6.10315911161116  4.54787805200520  0.68037824662466
 6 -7.95576134323432  1.15259611031103 -2.40088776227623
 7 -4.27731198449845 -0.29236742854285  1.03308464726473
 6 -4.24103763126313 -1.61685538713871  0.60798314791479
 6 -3.22674579907991 -2.37405070787079  1.50931529522952
 6 -3.00739391039104 -1.31839473037304  2.73920047614761
 6 -3.63178060546055 -0.03917654535454  2.15190977617762
 6 -3.55226826622662 -1.76639008040804  4.06823952335233
 6 -1.98792398559856 -2.78709611891189  0.66377168266827
 6 -0.94655629912991 -3.54583216381638  1.42770635863586
 6  0.27844294479448 -3.84736857755776  0.58633682838284
 8  0.45868593289329 -3.46894420802080 -0.58192442664266
 8  1.09066591229123 -4.61312092939294  1.27329193649365
 7 -4.80374119041904  2.63441281818182  1.39115934763476
 6 -3.92182427222722  2.38227564926493  2.44674527782778
 6 -3.74065356905691  3.65048355055506  3.17342789898990
 6 -4.52676322902290  4.57507903620362  2.63713298459846
 6 -5.22257836203620  3.99485758095810  1.53508960126013
 6 -2.76442180528053  3.74091146694669  4.36311050045004
 6 -4.57418394899490  6.07238465896590  2.91273077787779
 8 -4.03318336633663  6.58325621362136  3.89161306120612
 7 -6.71065486538654  2.60937083288329 -0.75552720902090
 6 -6.77815052985299  3.96839645684568 -0.43370505920592
 6 -7.80105529192919  4.64285100990099 -1.34861897139714
 6 -8.34798425172517  3.62215914581458 -2.12772171657166
 6 -7.63357224772477  2.47960396919692 -1.79693564006401
 6 -8.18567155805581  5.99348925832583 -1.24111362016202
 6 -9.31317568086809  3.74662506070607 -3.14632926572657
 6 -8.69541099479948  4.11229937613761 -4.58072447644764
 7 -6.26464488348835 -0.14831984968497 -1.10243533553355
 6 -7.24894442404240 -0.02917898649865 -2.10286449714972
 6 -7.60294780198020 -1.29246094969497 -2.73092561516152
 6 -6.71092064086409 -2.22657222902290 -2.01122728842884
 6 -5.91948036343634 -1.37846141124112 -1.12447857825783
 6 -8.52872833063306 -1.68060818681868 -3.74656155235524
 6 -6.35075874297430 -3.61097668156816 -1.87007056215622
 8 -6.62599699519952 -4.57525522392239 -2.60837710281028
 6 -5.11480004210421 -3.63104115671567 -0.83270559035904
 6 -5.47921539893989 -4.62704814591459  0.20794446624662
 8 -5.87936370797080 -4.40351936003600  1.32314867826783
 8 -5.21821151935194 -5.87395859225923 -0.19259240384038
 6 -5.67029459365937 -6.90875272857286  0.66205803560356
 6  2.29913088628863 -5.10543166336634  0.57280123452345
 6  3.38620315531553 -4.13254341524152  0.93262116191619
 6  4.05414480468047 -3.30838370847085  0.04734836983698
 6  3.72627696659666 -3.27140208150815 -1.47188669316932
 6  5.18004443024302 -2.50242529012901  0.55465926472647
 6  6.60418528982898 -2.78339126432643 -0.04937346994699
 6  7.62961828542854 -1.80302965846585  0.40409610011001
 6  8.98585940724072 -2.13404823842384 -0.14225200770077
 6  9.65272165386539 -3.52239287968797 -0.00405386308631
 6  9.87792837193719 -0.85919615701570  0.22035455095510
 6  11.38231553395340 -0.86413602050205 -0.29658842504250
 6  12.20881857045704  0.28501312881288  0.22691953955396
 6  13.47501995779578  0.44902977287729 -0.48225298849885
 6  14.41676997599760 -0.77953735633563 -0.44321847274727
 6  14.20571651125112  1.80348652025202 -0.15684493929393
 6  15.32720691109111  2.28169619781978 -1.04376937193719
 6  15.84868745314531  3.59809456225623 -0.55649626282628
 6  17.17081233033304  4.09087692929293 -1.26954088928893
 6  17.05117770747075  4.31563645534553 -2.76902912711271
 6  17.81832123822382  5.25296056135614 -0.48658811771177
 1 -2.93649937273727  1.23171744714471  3.73246371477148
 1 -6.44196217501750  5.65913129352935  0.76734572627263
 1 -8.67274768196820  1.14167447034703 -3.36459193799380
 1 -3.68058912371237 -3.35694100950095  1.91824988578858
 1 -1.92914003790379 -1.02252991459146  2.85276655275528
 1 -3.18880865996600 -2.76684984618462  4.23855739973997
 1 -3.18330912361236 -0.89103900830083  4.81280331013101
 1 -4.59954246594659 -1.74607368826883  4.01202515301530
 1 -2.12577789148915 -3.59296881418142 -0.17006763056306
 1 -1.28908674107411 -1.97927704400440  0.13825194679468
 1 -0.41767720122012 -2.93353464906491  2.29337355605561
 1 -1.22156687828783 -4.43766089728973  1.89720151815181
 1 -1.77853796759676  3.40485000940094  4.00032594229423
 1 -2.75725671577158  4.84278148414842  4.86440269796980
 1 -3.08309130413041  3.11738273577358  5.35852085808581
 1 -5.42537560146014  6.69206340074007  2.25735105650565
 1 -10.06862599609961  2.90893155025503 -3.09996324802480
 1 -10.02793359125913  4.65221906600660 -2.84996528722872
 1 -9.61018081788179  4.26091450545055 -5.15695089738974
 1 -7.99342885228523  5.02327207260726 -4.31408136313631
 1 -8.05682553155316  3.25279463826383 -5.20607053185319
 1 -8.39706729632963 -1.34379492239224 -4.83105410371037
 1 -8.62282326532653 -2.70628403350335 -3.81854449144914
 1 -9.51049112861286 -1.26934375777578 -3.25525243194319
 1 -4.28034539193919 -4.17080190679068 -1.54246753365337
 1  2.61594272727273 -6.07181512451245  1.02656861376138
 1  2.10548129152915 -5.12428940504050 -0.51431488108811
 1  3.59224134643464 -4.13974325612561  1.98100310791079
 1  2.77090207690769 -3.67075269636964 -1.50557309830983
 1  3.60518513181318 -2.12982654195420 -1.69131160166017
 1  4.57356953095309 -3.76876060526053 -1.84935386128613
 1  4.86588662956296 -1.53274969896990  0.04556644014401
 1  5.32109063636364 -2.33733536593659  1.65642052235224
 1  6.88996652335234 -3.80011320342034  0.22090997499750
 1  6.44595475587559 -2.86104371337134 -0.96527712321232
 1  7.39853878517852 -0.71335466056606  0.19301654715472
 1  7.94047615051505 -1.98220480358036  1.48792317761776
 1  8.98977308660866 -2.16653492869287 -1.33757709580958
 1  9.01948646734673 -4.25349412081208 -0.30033382578258
 1  10.66341568236824 -3.62373657575758 -0.51767188068807
 1  9.92676173757376 -3.82410350185018  1.16198664136414
 1  9.49156830743074  0.01893761996200 -0.09774441064106
 1  9.71915201270127 -0.94601113501350  1.38368790879088
 1  11.84286942824282 -1.90417044894489 -0.25610998419842
 1  11.49590567726773 -0.55975888078808 -1.41283261686169
 1  11.63833486698670  1.22493692289229  0.18474891969197
 1  12.42758758205821  0.17507869926993  1.34019229942994
 1  12.92729953065307  0.61452588488849 -1.54492673137314
 1  14.66649598789879 -0.86908512121212  0.59869554955496
 1  13.82601817281728 -1.64730374667467 -0.86520284178418
 1  15.44911589999000 -0.72197539573957 -0.79994688718872
 1  13.31937013121312  2.45190981008101  0.00905911821182
 1  14.75677237753775  1.72961325052505  0.79808702260226
 1  16.25141679747975  1.43957256995700 -1.05420191089109
 1  15.00297588098810  2.32273618641864 -2.02766414611461
 1  15.04019542414241  4.42281765976598 -0.58082008010801
 1  16.05807857795780  3.53203984538454  0.38581848224823
 1  17.85604928632863  3.24478596979698 -1.21365044464446
 1  16.32394311471147  5.15536206510651 -2.99629198899890
 1  18.08171409490949  4.57477699099910 -3.30783538863886
 1  16.77274747494750  3.40937200720072 -3.24485251985199
 1  18.15414146134613  5.09789100660066  0.65509717391739
 1  18.82110963326333  5.71532568476848 -0.95325223962396
 1  17.12210376127613  5.99069857295730 -0.62111617291729
 1 -5.61492679407941 -7.96474590769077  0.09623608590859
 1 -6.64930936123612 -6.99744683128313  1.11348485598560
 1 -4.95255342394239 -6.88901047664767  1.54160861746175
 8 -7.62937052865287  6.80115661646165 -0.47878566256626
 1 -9.04003230033003  6.52781842674267 -1.91318700150015

