%nproc=4
%Mem=4GB
# td=(NStates=1) iop(3/107=0140000000,3/108=0140000000) iop(3/107=0140000000,3/108=0140000000) CAM-B3LYP/6-31G(d,p) 

TD

0 1
12 -5.61221272787279  1.24212908720872  0.22274087928793
 6 -5.01439182638264 -2.09505796909691 -0.34332119891989
 6 -3.44563335243524  1.19175946074607  2.80218559185919
 6 -6.27529632533253  4.50739400360036  0.71349155795580
 6 -8.00789655675568  1.18068891959196 -2.38919659315932
 7 -4.43873812711271 -0.19579777157716  1.04121546034603
 6 -4.22542607010701 -1.53853755535554  0.63674602420242
 6 -3.12880600510051 -2.34272757555756  1.40995535923592
 6 -2.82702587358736 -1.28088097899790  2.52515907200720
 6 -3.66642406980698 -0.01741436913691  2.14701928712871
 6 -3.28650168956896 -1.91042448384839  3.90292299169917
 6 -1.96592178537854 -2.73304071337134  0.55248055355536
 6 -1.03099474297430 -3.63374095469547  1.39474306230623
 6  0.23218831933193 -3.84090793149315  0.64809300400040
 8  0.47903796809681 -3.53017033063306 -0.46409264346435
 8  1.05215206090609 -4.72101171847185  1.26514112141214
 7 -4.88363918021802  2.58704808170817  1.55077530923092
 6 -4.05961805160516  2.40169759145915  2.50823142644264
 6 -3.82675217891789  3.71412991519152  3.19791034723472
 6 -4.65315586828683  4.66784831313131  2.70199947124712
 6 -5.28998510271027  3.93909200440044  1.50740683298330
 6 -2.73573893699370  3.79415679147915  4.37603179257926
 6 -4.75693222382238  5.95307272777278  2.99940944574457
 8 -4.23193324132413  6.49342723072307  3.93195709560956
 7 -6.87356115601560  2.64800469626963 -0.64418607490749
 6 -6.93171588638864  3.99482910011001 -0.39794148284828
 6 -7.87310249664966  4.62385911071107 -1.26335044454445
 6 -8.43191264456446  3.58282521242124 -2.03886283068307
 6 -7.74149303980398  2.37433344214421 -1.73126907340734
 6 -8.47146013691369  5.95371528092809 -1.14405391419142
 6 -9.27248161146115  3.82403280148015 -3.26362099489949
 6 -8.56767822152215  3.96885503170317 -4.51512791679168
 7 -6.35205362436244 -0.12274729242924 -1.11923701570157
 6 -7.26718624822482  0.01621555295530 -2.14985919661966
 6 -7.51465897309731 -1.23985568916892 -2.75449797239724
 6 -6.66133568236824 -2.12734230603060 -2.08000416611661
 6 -5.95116353175318 -1.33828739383938 -1.19720585098510
 6 -8.47590304810481 -1.68592871887189 -3.81483838003800
 6 -6.13354702180218 -3.49336492039204 -2.00322387748775
 8 -6.51223561906191 -4.46270396879688 -2.68857512261226
 6 -5.06993555565557 -3.47174522712271 -0.95758807860786
 6 -5.37714519191919 -4.56041148224823  0.07667133893389
 8 -5.84639041064106 -4.31216022412241  1.17871423482348
 8 -5.01101079927993 -5.75850704710471 -0.40115325992599
 6 -5.31032859705971 -6.90378223152315  0.43762559235924
 6  2.35408638183818 -5.08311943214321  0.72230618501850
 6  3.43781831683168 -4.15017517841784  1.00414831463146
 6  4.11402079227923 -3.23846671677168  0.23456709170917
 6  3.84024836373637 -3.18113305460546 -1.22698220272027
 6  5.21668809460946 -2.38745379297930  0.79776357515752
 6  6.65149002030203 -2.76412933813381  0.30050151755175
 6  7.73721904550455 -1.84923427892789  0.90620631113111
 6  9.02491331263126 -1.97290212381238  0.10529274677468
 6  9.59455583728373 -3.38482912331233  0.33090963326333
 6  9.98748932803280 -0.86670690809081  0.51721423692369
 6  11.30875817821782 -0.94573418031803 -0.26727549374937
 6  12.14009169776978  0.41151577907791  0.02893974157416
 6  13.59045150095009  0.38245311521152 -0.60147491069107
 6  14.40979927892789 -0.83376277887789 -0.55332948384838
 6  14.29621556115612  1.66017218881888 -0.23370262506251
 6  15.44508869926993  2.13327135533553 -1.02752774777478
 6  16.02926551095110  3.48772352515252 -0.68619923312331
 6  17.34882013111311  3.88236607820782 -1.45518945414541
 6  17.09054164386438  4.02082697439744 -3.05401762596260
 6  17.81934134023402  5.16224148944895 -0.88741820072007
 1 -2.92094781758176  0.89261353675368  3.61266173457346
 1 -6.52066004480448  5.44356973737374  1.08568756045605
 1 -8.74096450365036  1.00330063296330 -3.26642212101210
 1 -3.54931599639964 -3.22853816921692  1.78681674247425
 1 -1.87891501540154 -1.12392005360536  2.56511778787879
 1 -2.84393417251725 -2.81539470067007  4.11334487848785
 1 -3.24115490819082 -1.27049695409541  4.72553458325833
 1 -4.32613512521252 -2.28011709260926  3.65670962146215
 1 -2.16104141784178 -3.27737725502550 -0.51333195699570
 1 -1.25860369276928 -1.74592370867087  0.34925304690469
 1 -0.79486491999200 -3.20415171077108  2.46251046974697
 1 -1.43726844844484 -4.60298742994299  1.58977077507751
 1 -1.70778089188919  3.81457098149815  4.05175108480848
 1 -2.71342233233323  4.97244445044505  4.75318157585759
 1 -2.92513550855086  3.00604160166017  5.25634064006401
 1 -5.25843890779078  6.62127632203220  2.33223854525453
 1 -10.16846598009801  3.10954161126113 -3.27559081078108
 1 -9.90072086998700  4.62832667676768 -3.13022331303130
 1 -9.12953275307531  3.95670408440844 -5.44379958225823
 1 -8.24215372477248  5.05857560296030 -4.71465142014201
 1 -7.65809565856586  3.14375373417342 -4.65252517731773
 1 -8.30396798639864 -0.94227477037704 -4.65036603490349
 1 -8.58394937793780 -2.76667007210721 -3.99129176617662
 1 -9.54122420192019 -1.49455627902790 -3.75433233993399
 1 -4.20262762016202 -3.68778360496050 -1.43637692459246
 1  2.41690282328233 -6.08939688268827  1.02111806870687
 1  2.35896664006401 -5.16678365446545 -0.37078052765277
 1  3.66396851915192 -4.18070735253525  1.95473048064806
 1  2.89735472217222 -3.42396801790179 -1.58335087608761
 1  3.91464607790779 -2.04239779907991 -1.38492096259626
 1  4.52306448044804 -3.84462819201920 -1.89791871777178
 1  4.86431647254725 -1.28836526052605  0.51228311181118
 1  5.24379290659066 -2.45906753915391  1.85225010531053
 1  6.71632915961596 -3.80414360646065  0.38605648964897
 1  6.59100926132613 -2.48598620762076 -0.87937853335334
 1  7.30408934023402 -0.69363268836884  0.70283752925293
 1  7.98287038993899 -2.02584916801680  2.03710809610961
 1  8.77488159745975 -1.75860413561356 -1.03261659975998
 1  8.67550206890689 -4.12318108950895  0.06234244184418
 1  10.42846218701870 -3.51664586668667 -0.22921303480348
 1  10.03336239763976 -3.59162025352535  1.42741318401840
 1  9.58368751935194 -0.02680695449545  0.01537690149015
 1  10.12585268276828 -0.50040657455746  1.64777431743174
 1  11.82683782508251 -2.03476350825083  0.00006563336334
 1  11.10915700240024 -0.77745064996500 -1.29872120572057
 1  11.63370440394039  1.46792122132213  0.06757720252025
 1  12.39390421372137  0.59460065146515  1.12684096429643
 1  13.38053485418542  0.44723915621562 -1.65502774147415
 1  14.67389672797280 -1.19901811451145  0.45252093209321
 1  13.99980555155516 -1.64563357965797 -1.29119544104410
 1  15.30547153555356 -0.78052125032503 -1.04065095759576
 1  13.56175436963696  2.64274889398940 -0.26654844254425
 1  14.60439714001400  1.61411170037004  0.91392860676068
 1  16.05837749354935  1.28683729642964 -0.94993148384838
 1  15.16560214361436  2.01732564536454 -2.15043642334233
 1  15.33162456705671  4.27578295629563 -0.77031903000300
 1  16.36527929802980  3.48993563496350  0.26012591299130
 1  18.11903558495850  3.20652214341434 -1.18943802340234
 1  16.22931365176517  4.62157868676868 -3.18666102590259
 1  17.94884080758076  4.42333184648465 -3.40004460956096
 1  16.81688188838884  3.13721479147915 -3.57895593019302
 1  17.70153620082008  4.88449966746675  0.12959462366237
 1  18.70498802110211  5.55706985918592 -1.32288920332033
 1  17.14791634253425  6.08637814091409 -0.74997905920592
 1 -4.95685098649865 -7.77043647674767 -0.23036657435744
 1 -6.40605503580358 -6.71524861146115  0.55965947344734
 1 -4.98288645724572 -7.07551912751275  1.40122457905791
 8 -8.02588017961796  6.80951745254525 -0.41135891989199
 1 -9.40415871297130  6.15322096699670 -1.59295497829783

