%nproc=4
%Mem=2GB
# td=(NStates=1) iop(3/107=0140000000,3/108=0140000000) iop(3/107=0140000000,3/108=0140000000) CAM-B3LYP/6-31G(d,p) 

TD

0 1
12 -6.63550612271227  0.59327847194719  0.16184380388039
 6 -4.45735284178418 -2.08099652145215  0.58497877487749
 6 -4.20983279867987  2.78536016911691  0.93589647124712
 6 -8.75132783748375  3.24475849994999 -0.38123762546255
 6 -9.30246834443444 -1.71921495109511 -0.74314437313731
 7 -4.63513858575858  0.35929532723272  0.66954598669867
 6 -3.89365663126313 -0.81399110591059  0.55042559795980
 6 -2.38525194379438 -0.56399815901590  0.96982904520452
 6 -2.40921088688869  1.00167031583158  1.17607977047705
 6 -3.74768103100310  1.41600168536854  0.85762053675368
 6 -1.91812809850985  1.39592138803880  2.68823338613861
 6 -1.49889863826383 -1.03719628302830 -0.25473414711471
 6 -0.13806192449245 -1.59962166876688  0.25021409490949
 6  0.79783086228623 -1.71691892879288 -0.86374454825483
 8  0.69777984608461 -1.40581319381938 -1.96885787598760
 8  1.80247053365337 -2.46791709030903 -0.49324424692469
 7 -6.48178992119212  2.66021639163916  0.29757350525052
 6 -5.39773033393339  3.14703334653465  0.62198849504950
 6 -5.74965918111811  4.73039272407241  0.61513638223822
 6 -7.10087080048005  4.86582267276728  0.32127871117112
 6 -7.56623832773277  3.54137294569457 -0.01199636823682
 6 -4.86545146544654  5.62083951445145  1.09220688868887
 6 -7.83846540784078  6.29622654275428  0.33770329402940
 8 -7.32173608980898  7.26014763136314  0.36104396119612
 7 -8.71010456395640  0.78831969116912 -0.38448109720972
 6 -9.35185885828583  2.04479921522152 -0.45781683398340
 6 -10.67202383268327  1.78266813791379 -0.82494827602760
 6 -10.88385274277428  0.35984688908891 -0.88173902940294
 6 -9.77620928422842 -0.31014917811781 -0.75978805550555
 6 -11.84390116541654  2.68110430353035 -0.88355300610061
 6 -12.13951707220722 -0.41444500680068 -1.14091222492249
 6 -12.08324518661866 -0.70277244244424 -2.68196099079908
 7 -6.87229371227123 -1.37083964526453 -0.05361800630063
 6 -7.95106776837684 -2.14941493819382 -0.52958615661566
 6 -7.58979656475648 -3.62386970937094 -0.41425243534353
 6 -6.20868648984898 -3.56639580048005 -0.05638389898990
 6 -5.89317560626063 -2.12409122362236  0.20117630193019
 6 -8.44615313881388 -4.69777715551555 -0.61845466136614
 6 -5.00825703020302 -4.34411020912091  0.15358338403840
 8 -4.90165191389139 -5.61990252855286  0.05365587218722
 6 -3.91851557695770 -3.42091265046505  0.55965061226123
 6 -3.44813832473247 -3.77191336683668  1.92036174917492
 8 -4.11537677777778 -4.28993572837284  2.92235090489049
 8 -1.93045472037204 -3.65990229552955  1.84973491269127
 6 -1.23104162626263 -3.93795888598860  3.17098152335234
 6  2.91525341814181 -2.53824900180018 -1.52007325142514
 6  3.95058882628263 -1.50222722382238 -1.14741027332733
 6  4.98073882928293 -1.10992786418642 -1.97962416401640
 6  5.14513849764977 -1.75909904460446 -3.25384236643664
 6  6.01939576417642 -0.12769042194219 -1.50366692519252
 6  7.24896359035904 -0.94813059515952 -0.89701643894389
 6  8.21147370767077  0.20509614421442 -0.62395087558756
 6  9.64426751615161 -0.44916183648365 -0.10945925162516
 6  9.63899141544154 -1.10529934463446  1.43540790959096
 6  10.70533286328633  0.69232408660866  0.07760259865987
 6  12.09009427992799  0.14239554675468  0.23585189638964
 6  13.25264680728073  1.11291856655666  0.27394029242924
 6  14.70474680988099  0.52502578067807  0.78435309740974
 6  14.66420140824082  0.01899961946195  2.35215513951395
 6  15.68957858625863  1.55214011601160  0.51751495679568
 6  17.02359183728373  0.97864308870887 -0.11302817671767
 6  18.31593114051405  1.98586577777778 -0.30242038883888
 6  19.59740194129413  1.16457495229523 -0.54285436913691
 6  19.76754655595560  0.74004943524352 -1.91858764996500
 6  20.88551572047205  2.19158057605761 -0.29072416831683
 1 -3.51521215951595  3.77691894289429  1.20722012371237
 1 -9.57978196069607  3.86994607970797 -0.53336697059706
 1 -10.08873136473647 -2.33361376067607 -1.03287611351135
 1 -1.90071258805881 -1.31774939273927  1.86888693699370
 1 -1.73321265986599  1.41785226142614  0.51548800220022
 1 -1.11533291699170  0.92689100350035  3.24435514661466
 1 -1.87079525342534  2.71603017941794  2.81738785658566
 1 -2.68886121862186  1.23053093839384  3.38260412951295
 1 -1.82494151445144 -1.66876814981498 -0.96950473727373
 1 -0.93865903490349 -0.08818029092909 -0.87704749554955
 1 -0.20936293799380 -0.89492092539254  1.07398326352635
 1 -0.12723644344434 -2.65755208900890  0.87317754985498
 1 -3.77970250065006  5.29805763366337  0.47523248094810
 1 -4.82241252185219  6.52962563846385  0.64172107820782
 1 -4.66378740694069  5.68924788578858  2.16479425172517
 1 -9.18596161026103  6.21576668586859  0.33312693689369
 1 -12.08093764736474 -1.10687155465547 -0.33484791199120
 1 -12.91604781978198  0.04188058785879 -0.79186682308231
 1 -13.04351217431743 -1.60217233263326 -2.75095221232123
 1 -12.24974193799380  0.21608903040304 -3.37895006450645
 1 -11.05859268366837 -1.39102241924192 -2.49042564996500
 1 -8.91676085938594 -4.64903145874587 -1.77851007900790
 1 -8.15034024862486 -5.86694670727073 -0.15260491239124
 1 -9.37892517251725 -4.62397435863586  0.04047865736574
 1 -2.94486406780678 -3.64763848874887  0.08810050325032
 1  3.42084369976998 -3.59391666546655 -1.44140985808581
 1  2.44037832663266 -2.11227714271427 -2.64938517381738
 1  3.90005733343334 -1.14432718111811 -0.15345174357436
 1  4.50172322932293 -1.70974444694469 -4.18691880688069
 1  6.25337891629163 -1.47667634303430 -3.85026625052505
 1  5.08554238163816 -2.91561417571757 -3.25253943774377
 1  6.38824924682468  0.47941327872787 -2.55555817301730
 1  5.45080018941894  0.74806035383538 -0.97803206660666
 1  7.18440961986199 -1.63500169726973 -0.16816509490949
 1  7.55285068346835 -1.58587737803780 -1.83931340724072
 1  8.36849898129813  0.55226582138214 -1.87072985828583
 1  8.05190368846885  0.87650283848385  0.15189089748975
 1  9.83781622872287 -1.33261070477048 -0.95078223582358
 1  9.03260550485049 -2.07870668636864  1.33165152595260
 1  10.69340540994100 -1.35169905110511  2.10705259665967
 1  9.22343555515552 -0.34058528092809  2.09178048314831
 1  10.61163480128013  1.43073583348335 -0.94882205380538
 1  10.57688743534353  1.22302117771777  0.91761564186419
 1  12.09291683388339 -0.47751019051905  1.40935461876188
 1  12.44557671167117 -0.62026024662466 -0.77253025052505
 1  13.23244811481148  1.63401294629463 -0.42187109170917
 1  13.06763880868087  2.01429568086809  0.97223301270127
 1  14.88968039383938 -0.29094661066107  0.03241505030503
 1  14.10985088498850  0.87309770527053  3.10064283728373
 1  13.97316458995899 -0.94338201010101  2.00446794489449
 1  15.82841987508751 -0.02452603570357  2.84899137683768
 1  15.27145828072807  2.18981897529753 -0.23323329802980
 1  16.10111414401440  2.42278181368137  1.40343866706671
 1  17.26868818391839  0.14694786538654  0.34292447914791
 1  16.68121564576458  0.55318348754875 -1.22355373277328
 1  18.06863187028703  2.51468801660166 -1.30301328962896
 1  18.36905690179018  2.59258316521652  0.77452412291229
 1  20.04035659685969  0.25759860606061  0.32914626542654
 1  20.21734005200520  1.84240929052905 -2.47868999419942
 1  20.45069935993599 -0.18509031083108 -1.73064719811981
 1  18.47063979097910  0.49361164276428 -2.36567464216422
 1  21.43275005360536  2.53838341744174  0.77474822842284
 1  21.89592733303330  1.83995057775778 -0.72624533953395
 1  20.71199785268527  3.41391887908791 -0.45494029032903
 1 -0.12242786788679 -3.86871962136214  2.71952030003000
 1 -1.74420410141014 -5.05417269096910  3.51047168376838
 1 -1.36602061536154 -3.18258673577358  3.88869302250225
 8 -11.65354372867287  3.85554035323532 -0.76456827052705
 1 -12.82806331783178  2.22453369346935 -1.36540714571457

