%nproc=4
%Mem=4GB
# td=(NStates=1) iop(3/107=0140000000,3/108=0140000000) iop(3/107=0140000000,3/108=0140000000) CAM-B3LYP/6-31G(d,p) 

TD

0 1
12 -5.63077458405841  1.26452132643264  0.19067767296730
 6 -5.03227361456146 -2.08353681698170 -0.36643351015101
 6 -3.43145193429343  1.19245953075308  2.73031840514051
 6 -6.30299909560956  4.55226849104911  0.70899110791079
 6 -7.99615538263826  1.17859871057106 -2.38841651515152
 7 -4.30674492779278 -0.28948714051405  0.98437977677768
 6 -4.19622314981498 -1.55196889848985  0.57498984858486
 6 -3.15105823032303 -2.31799510231023  1.34064842854285
 6 -2.96104927592759 -1.29094198509851  2.58351490759076
 6 -3.64446187358736 -0.07763039073907  2.06841142634263
 6 -3.54835787518752 -1.74182762416242  3.93008570797080
 6 -1.95303049624962 -2.70581799109911  0.51149645514551
 6 -0.93054469796980 -3.52006958755876  1.39978356635664
 6  0.37059215971597 -3.87230107080708  0.69864805950595
 8  0.55434549884989 -3.60736805040504 -0.44969120332033
 8  1.20337718341834 -4.65689530683068  1.44695930323032
 7 -5.01627244354435  2.68191756865687  1.51123135483548
 6 -4.04108619841984  2.42816023772377  2.53336393969397
 6 -3.84559406310631  3.63807230943094  3.16413696989699
 6 -4.64643519621962  4.64498602690269  2.65907517881788
 6 -5.35185128932893  4.03209130433043  1.57841393369337
 6 -2.87387275037504  3.69092646844684  4.41071526092609
 6 -4.76563309390939  6.03173059355936  2.99494899969997
 8 -3.98006805480548  6.68094598259826  3.70147404730473
 7 -6.86317011691169  2.64959485528553 -0.68661031733173
 6 -7.01311402620262  3.96896651385139 -0.33319500820082
 6 -8.00190537693769  4.57793451825183 -1.17084119361936
 6 -8.47862731603160  3.58376530643064 -2.03897284168417
 6 -7.80008889938994  2.36664267306731 -1.74504045054505
 6 -8.39151214211421  5.93982389178918 -1.14414392319232
 6 -9.47318168146815  3.86708710691069 -3.15101973477348
 6 -8.81219267296730  4.04159230543054 -4.55670207420742
 7 -6.39164758375838 -0.09716473417342 -1.08832392439244
 6 -7.35914544414441 -0.04069013761376 -2.07437164786479
 6 -7.47228473567357 -1.27136884048405 -2.78611113371337
 6 -6.71370091889189 -2.16316588838884 -2.04964112981298
 6 -6.10033844924492 -1.39288285338534 -1.04363049344934
 6 -8.42557801560156 -1.51392151815182 -3.89396629282928
 6 -6.09403307040704 -3.46350193409341 -1.98963251835184
 8 -6.38269266476648 -4.45541323972397 -2.72778904400440
 6 -5.01119968206821 -3.59079713231323 -0.86692901270127
 6 -5.33422089948995 -4.59804524562456  0.13234690649065
 8 -5.71219699129913 -4.38140714881488  1.29007537093709
 8 -5.08629832803280 -5.86518771517152 -0.26818996359636
 6 -5.23737130133013 -6.95870772407241  0.63954578437844
 6  2.36755772897290 -5.08869999019902  0.72628658305831
 6  3.43449798479848 -4.08444860576058  0.95483338313831
 6  3.97618700890089 -3.21104397449745  0.14670830583058
 6  3.76354069296930 -3.16316125742574 -1.41480098459846
 6  5.12125855165517 -2.39145419301930  0.65488928772877
 6  6.57305217651765 -2.63161608680868 -0.09601813441344
 6  7.61349667326733 -1.74007336283628  0.48610430093009
 6  9.09350017131713 -2.01382621622162 -0.12325010751075
 6  9.46895327702770 -3.47448808920892  0.09240578287829
 6  10.06816739583958 -1.01223146054605  0.35600811631163
 6  11.42853015541554 -0.99404901180118 -0.34980374657466
 6  12.27784547314731  0.12522715021502  0.24433128072807
 6  13.63103555935593  0.32866773667367 -0.52781754495450
 6  14.50786908590859 -0.91113051565157 -0.35048919981998
 6  14.26175211481148  1.72818899049905 -0.00624987978798
 6  15.50677486788679  2.14984301250125 -0.82847784278428
 6  16.01855443984399  3.51529628242824 -0.64211482468247
 6  17.23887913701370  3.92386022762276 -1.41138507370737
 6  17.04020661036104  4.15962085378538 -2.91128335253525
 6  17.93097250335033  5.19495476077608 -0.81001045994599
 1 -2.75449117191719  1.06227050245025  3.46151662006201
 1 -6.42536051485148  5.56588196859686  0.71526051775178
 1 -8.90303071027103  1.13353365626563 -3.04175965476548
 1 -3.55770683548355 -3.34922023742374  1.78610667146715
 1 -1.85742286618662 -0.99501716331633  2.88198947504750
 1 -3.14659443854385 -2.83582674387439  4.19119266326633
 1 -3.37247804050405 -0.99971987638764  4.60813284308431
 1 -4.68387089878988 -1.90641972287229  4.06177012751275
 1 -2.21267658135814 -3.26066558385839 -0.39029965376538
 1 -1.29658749114912 -1.72879199549955  0.25650377197720
 1 -0.73249868336834 -3.01029232483248  2.21886610531053
 1 -1.34609933153315 -4.57500463166317  1.75837763576358
 1 -1.81495160896090  3.29417894229423  4.23380929062906
 1 -3.03486447654765  4.82567977397740  4.60717697539754
 1 -3.25750874587459  3.14943594109411  5.17765277127713
 1 -5.54564762866286  6.59419361376138  2.65005032643264
 1 -10.04284341784178  2.89239989708971 -3.20180343204320
 1 -10.19518031593159  4.61582542664266 -2.86412670337034
 1 -9.43341314111411  3.82454086808681 -5.56234143644364
 1 -8.30907041644164  5.11889163456346 -4.60719067406741
 1 -7.90341019001900  3.11424078287829 -4.48896882168217
 1 -8.15235282488249 -0.87777832073207 -4.65930692899290
 1 -8.34083506650665 -2.44610801590159 -4.07422005900590
 1 -9.33221330083008 -1.22341916531653 -3.52136904360436
 1 -4.12527988538854 -3.79319414601460 -1.27344063096310
 1  2.54593572657266 -6.11541948494849  0.85074103100310
 1  2.30094083748375 -4.97645462156216 -0.35184863446345
 1  3.96031815411541 -4.12186146794680  1.96281128872887
 1  2.75396038273827 -3.65604122522252 -1.51652419341934
 1  3.79605421872187 -2.15572913221322 -1.57792026252625
 1  4.46666884088409 -3.71869559875988 -2.07271619751975
 1  4.92043208410841 -1.28313473747375  0.52406428992899
 1  5.18715724302430 -2.53608524092409  1.72980786108611
 1  6.69670719741974 -3.80014320642064 -0.00501261726173
 1  6.39355951635163 -2.42307991699170 -1.05347594309431
 1  7.54577350865087 -0.76301962706271  0.46921416691669
 1  7.85643774667467 -1.96787337043704  1.61360574587459
 1  8.78679278857886 -1.83784205940594 -1.15718905700570
 1  8.66209072777278 -4.30996976837684 -0.16134992739274
 1  10.45741508230823 -3.62650685278528 -0.42512262576258
 1  9.71164022542254 -3.61503259475948  1.23493393609361
 1  9.58715786638664  0.16478220442044  0.13089845364536
 1  10.11580167766777 -1.22550908480848  1.51567110711071
 1  12.03856899819982 -1.86920695259526 -0.23145751895189
 1  11.14872095879588 -1.05315822072207 -1.31657299089909
 1  11.62519355285529  1.07698212741274  0.18328877367737
 1  12.36830165346534 -0.13453226182618  1.29192747294729
 1  13.50664746544654  0.46141057335734 -1.49649188788879
 1  14.94119345764576 -1.25402361506151  0.55296097609761
 1  13.97539311031103 -1.73060207650765 -0.89866618811881
 1  15.34429541794180 -0.81879507770777 -0.96881377387739
 1  13.46672486668667  2.50570518961896 -0.17747953565357
 1  14.53631033133313  1.37173746294629  1.00706792069207
 1  16.33328498429843  1.55263387608761 -0.76377286798680
 1  15.07668325172517  2.20183409620962 -1.87155853555355
 1  15.14970637523752  4.30054543254325 -0.81159315741574
 1  16.13280605070507  3.49555619701970  0.44940484088409
 1  17.86305998739874  3.14037552875288 -1.10719979957996
 1  16.18296901730173  4.93249977887789 -3.05421778157816
 1  17.85567149064907  4.78114762806281 -3.38342294739474
 1  16.72258245844585  3.25313638363836 -3.56859489408941
 1  17.86550259745975  5.16678789628963  0.34740640484048
 1  18.96189371167117  5.37460161236124 -1.20422733713371
 1  17.42943449434943  6.08942844594459 -1.14937899919992
 1 -4.76276157755776 -7.91237067016702  0.21901836413641
 1 -6.17821225152515 -7.07597468406841  0.82664617211721
 1 -4.58324649324932 -6.69027060266027  1.53791824842484
 8 -7.84300189178918  6.76771327212721 -0.45080286428643
 1 -8.95592388948895  6.36590223512351 -1.87972365516552

