%nproc=4
%Mem=2GB
# td=(NStates=1) iop(3/107=0140000000,3/108=0140000000) iop(3/107=0140000000,3/108=0140000000) CAM-B3LYP/6-31G(d,p) 

TD

0 1
12 -6.82150472257226  0.63599274337434  0.02268988848885
 6 -4.57286439293929 -2.01692011381138  0.42036231323132
 6 -4.27053886928693  2.85687732083208  0.94398728032803
 6 -8.82944564926493  3.28593261736174 -0.42363186488649
 6 -9.20783888148815 -1.67062009160916 -0.67920797949795
 7 -4.70751582348235  0.48724812251225  0.46473550565056
 6 -3.93952121772177 -0.76944665146515  0.62443299869987
 6 -2.37923134173417 -0.39680143934393  0.87503956625663
 6 -2.46128609440944  1.02765291409141  1.25540770327033
 6 -3.91712797569757  1.42543262846285  0.79262403710371
 6 -1.99399568526853  1.22122391829183  2.79870443324332
 6 -1.57674642304230 -1.01445400880088 -0.31895056875688
 6 -0.08035615391539 -1.23878558515852  0.26122519601960
 6  0.77484856405641 -1.37956519341934 -0.85819399319932
 8  0.79439950805080 -1.09474208670867 -2.07253824402440
 8  1.89743002960296 -2.00122042064206 -0.29855477797780
 7 -6.69603134533453  2.57048741874187  0.34715846374637
 6 -5.44605516641664  3.38388703190319  0.74551084728473
 6 -5.79373358855886  4.76126581138114  0.69587445604560
 6 -6.99830054345435  4.98453454395440  0.39702628592859
 6 -7.60471217511751  3.49901871027103  0.21041587298730
 6 -4.87665258555856  5.69994742524252  0.91203887188719
 6 -7.95565712701270  6.02911983208321  0.32943246694669
 8 -7.48636255245525  7.07135875247525  0.67529538633863
 7 -8.69201275477548  0.77454831403140 -0.45213786288629
 6 -9.42761643404340  1.91802653795379 -0.45005605790579
 6 -10.80137676797680  1.65360523162316 -0.73869965116512
 6 -10.95468982648265  0.24403530793079 -0.84486534203420
 6 -9.63733539683968 -0.27892605580558 -0.64462653935394
 6 -11.90760753605360  2.62067826092609 -0.91987663846385
 6 -12.29952307280728 -0.48478204050405 -1.32801093479348
 6 -12.04062092419242 -0.89968213341334 -2.76393918861886
 7 -7.00622710561056 -1.30213277457746 -0.12499514401440
 6 -8.18527118871887 -2.28366836353635 -0.34731792979298
 6 -7.72562014711471 -3.55635295769577 -0.50024103420342
 6 -6.29072469366937 -3.55442460336034 -0.13015127572757
 6 -5.96759304800480 -2.20849966446645  0.11742792709271
 6 -8.47568609210921 -4.73828120592059 -0.73712652855286
 6 -5.23324952945295 -4.41992779087909  0.33456148184819
 8 -5.09112086078608 -5.69544008230823  0.37264777137714
 6 -4.03375710111011 -3.42533309250925  0.57540218741874
 6 -3.43171668256826 -3.77734390989099  1.96989670267027
 8 -3.91940718081808 -3.88911564636464  3.05328399819982
 8 -1.83798547344734 -3.94613091839184  1.71837177637764
 6 -1.02398092019202 -4.23295838593859  2.77464188938894
 6  3.00815270807081 -2.27840301720172 -1.22003324742474
 6  4.04611837923792 -1.29722672377238 -1.13194872717272
 6  5.21237199259926 -1.21238811021102 -1.95711191279128
 6  5.49711369516952 -2.01145428012801 -3.26161314351435
 6  6.18121194579458 -0.01640929382938 -1.52983954245425
 6  7.41174986898690 -0.77030281238124 -0.86556329362936
 6  8.38739129942994  0.20843647824782 -0.59803828432843
 6  9.80637372677268 -0.39131605190519 -0.02140044574457
 6  9.53168068436844 -0.88147696239624  1.53674804360436
 6  10.98891122112211  0.59761461566157 -0.08468362996300
 6  12.38037330783078 -0.19389808260826  0.37650596179618
 6  13.29005054765477  0.95353262796280  0.52170506890689
 6  14.70693702890289  0.45919919801980  0.70844550665067
 6  14.90883587168717 -0.34829711021102  2.04608453245325
 6  15.85291491989199  1.39316421842184  0.38133133843384
 6  17.20775025312531  0.84148937333733  0.01340446654665
 6  18.15510505790579  1.84066125732573 -0.25478562536254
 6  19.62573477457746  1.27537603240324 -0.43683376707671
 6  19.77619742104211  0.55748117841784 -1.92528832003200
 6  20.61629879877988  2.39746116411641 -0.37775287118712
 1 -3.33415405370537  3.21506275727573  1.22749215091509
 1 -9.30847482998300  4.25225431053105 -0.54890852475247
 1 -10.22913540514051 -2.32336273557356 -0.86332915881588
 1 -2.05488800560056 -1.18109572737274  1.70453050135013
 1 -1.57946728532853  1.78038851505151  0.45777223062306
 1 -1.09808119181918  0.75835414981498  2.73175388648865
 1 -1.57646582048205  2.12865144154415  2.81462758055806
 1 -2.54039637213721  0.60861874717472  3.52833870297030
 1 -2.02356137643764 -2.15334660766077 -0.81789957675768
 1 -1.47322249124912 -0.32373384628463 -1.30609039983998
 1  0.48399639793979 -0.37425885918592  0.96680254545455
 1 -0.26135985578558 -2.13825015881588  0.85475570767077
 1 -4.28387291769177  5.53914174207421 -0.11322636493649
 1 -5.19738001860186  6.58387106300630  0.66795370147015
 1 -4.47367839603960  5.66782574357436  1.92115988828883
 1 -9.27136015011501  5.88795390459046  0.36045967016702
 1 -12.05633518711871 -1.32294316181618 -0.69993442064206
 1 -12.80181639663966  0.11890829062906 -1.10258789518952
 1 -13.18026584968497 -1.60606272167217 -2.99106622372237
 1 -12.00961792559256  0.37290471197120 -3.26965913541354
 1 -11.19258608300830 -1.75512882988299 -2.84057066446645
 1 -8.93225240854085 -4.90864742034203 -1.78870109810981
 1 -7.89687490209021 -5.61843185578558 -0.39907955985599
 1 -9.70914819481948 -4.61138309950995 -0.15583097359736
 1 -3.32793237463746 -3.66430015491549 -0.29619792659266
 1  3.14522613801380 -3.37138441224122 -0.96279199629963
 1  2.74710899969997 -2.19037495249525 -2.39810004530453
 1  3.86166349404941 -0.68564131253125 -0.08525492389239
 1  4.87632068906891 -1.25019849234923 -4.09918003300330
 1  7.02471605000500 -2.18782745814581 -3.74674589848985
 1  5.24134796219622 -3.15082769706971 -3.32601678547855
 1  6.45511593349335  0.38107344474448 -2.51438405560556
 1  5.99155426482648  0.79600514831483 -0.80300456385639
 1  7.09737091599160 -1.30112830993099  0.10144186578658
 1  7.69894529292929 -1.61250004030403 -1.47525700160016
 1  8.77749988138814  0.71292188698870 -1.78354113941394
 1  8.20030852895290  1.15227041524152  0.04176988538854
 1  10.15599804690469 -1.35355279897990 -0.38680583818382
 1  8.95117736203620 -1.71208002370237  1.53952231303130
 1  10.39138520792079 -0.94207808900890  1.68024991639164
 1  9.02887609920992  0.05492427002700  2.15303660876088
 1  10.90858449624962  1.13928668856886 -1.38510568216822
 1  10.74063380998100  1.40325920152015  0.68575245554555
 1  12.11258880108011 -0.78176061556156  1.54232791609161
 1  12.70427258125813 -1.29667788838884 -0.67023002050205
 1  13.44083895389539  1.42457200220022 -0.49009791439144
 1  12.90577262206221  1.38569282058206  1.33404919431943
 1  14.55656708250825 -0.12010952695269 -0.45600379157916
 1  14.82466236613661  0.37436783228323  2.95959873287329
 1  14.18006528002800 -1.12742041394139  2.00716821492149
 1  15.83092012511251 -0.62517610071007  1.80573705140514
 1  15.32876401130113  1.95235522892289 -0.36377635233523
 1  15.92753678627863  2.27838737423742  1.18467679087909
 1  17.29224053915392  0.18386155675568  1.05830601730173
 1  17.26355387958796 -0.21119295009501 -0.70908228562856
 1  17.87084209130913  2.49436598439844 -1.04296728502850
 1  18.14293428952896  2.78203211011101  0.23479014951495
 1  19.79372193339334  0.38535138133813  0.24722807360736
 1  19.65181349934993  1.40507555715572 -2.92189431463146
 1  20.88128241824182 -0.09758155995599 -2.17796192959296
 1  19.02956568356836 -0.39142686108611 -1.41202927762776
 1  20.64327110571057  3.02249182828283  0.38056881048105
 1  21.49157689798980  2.28048463116312 -0.41163387838784
 1  20.53610026292629  3.10205769296930 -1.06850164646465
 1 -0.21545717081708 -4.12068481788179  2.21092944094409
 1 -1.44816449744974 -5.34629190289029  3.26583722032203
 1 -1.04910892419242 -3.67840631773177  3.63779793299330
 8 -11.53781215551555  3.86822162136214 -0.80948276197620
 1 -12.85905641714171  2.24252549264926 -0.83250385538554

