%nproc=4
%Mem=4GB
# td=(NStates=1) iop(3/107=0140000000,3/108=0140000000) iop(3/107=0140000000,3/108=0140000000) CAM-B3LYP/6-31G(d,p) 

TD

0 1
12 -5.71494300090009  1.17941281558156  0.22994159935994
 6 -5.08068845604560 -2.17044550785078 -0.27516438323832
 6 -3.43229201830183  1.17702798759876  2.73131850515052
 6 -6.11672046774677  4.52186545074507  0.58439864866487
 6 -8.06432219931993  1.12890374107411 -2.30584825832583
 7 -4.28905315861586 -0.30379857165717  0.95223656245625
 6 -4.21906543404341 -1.71748545014501  0.65350770037004
 6 -3.20897402190219 -2.36158946174617  1.44664902860286
 6 -2.88188135913591 -1.43657654855486  2.54350090619062
 6 -3.57409483688369 -0.09102172987299  2.02220680588059
 6 -3.40274331373137 -1.73933737513751  3.95999869926993
 6 -1.94118931213121 -2.67472488178818  0.57021232673267
 6 -0.92326396989699 -3.42198977957796  1.39684327232723
 6  0.22130723122312 -3.94154799549955  0.45114330903090
 8  0.38005807010701 -3.67907522112211 -0.75916215041504
 8  1.08547539323932 -4.77265688298830  1.14885949324932
 7 -4.93038385468547  2.58658803570357  1.51215144684468
 6 -3.95973806360636  2.47418484018402  2.45395599889989
 6 -3.62821232493249  3.70295879807981  3.09788034423442
 6 -4.46427698039804  4.66603813211321  2.52864213551355
 6 -5.14312041624162  3.96798489368937  1.43811990429043
 6 -2.75851121422142  3.83184055985599  4.18928311771177
 6 -4.51944847544755  6.07515493599360  2.76396590139014
 8 -3.97602765076508  6.68100598859886  3.74283818371837
 7 -6.84194799469947  2.60380027582758 -0.70445210151015
 6 -6.94697741254125  3.95348496569657 -0.35168685738574
 6 -7.88249343574357  4.66637336213621 -1.22129623912391
 6 -8.50540999429943  3.61183811371137 -2.05787473187319
 6 -7.79448833933393  2.46078208700870 -1.68579452595260
 6 -8.28426141704171  6.01091100050005 -1.08548805760576
 6 -9.54500886418642  3.84368476667667 -3.11365599839984
 6 -8.84447590129013  4.29042718891889 -4.45132153615362
 7 -6.42202062106211 -0.14177919561956 -0.98281337333733
 6 -7.29683921352135 -0.04489055765577 -2.01672588328833
 6 -7.52853036023602 -1.39034073767377 -2.75322784538454
 6 -6.68331788058806 -2.21214078587859 -2.02826899259926
 6 -5.99012742814281 -1.38638220332033 -1.07409353975398
 6 -8.48283374117412 -1.67822794879488 -3.76225312151215
 6 -6.20468413551355 -3.59319490339034 -1.97375093019302
 8 -6.58573296879688 -4.54788248664866 -2.58486475157516
 6 -5.09075763786379 -3.58661671427143 -0.88366068586859
 6 -5.33373085048505 -4.69879532063206  0.18124179597960
 8 -5.58448422002200 -4.46092510061006  1.33211957535754
 8 -4.84592429062906 -5.87674887128713 -0.29753289788979
 6 -5.28753631783178 -6.98322017531753  0.62843467326733
 6  2.27928890209021 -5.17348846904690  0.43993794819482
 6  3.30555509050905 -4.16939710061006  0.96467436723672
 6  4.05667505770577 -3.29161203130313  0.15719935493549
 6  3.71732607150715 -3.03827876917692 -1.25955546004600
 6  5.09833625942594 -2.40389543714371  0.73390718951895
 6  6.45946081738174 -2.57177010221022 -0.07410594319432
 6  7.52699802340234 -1.67902725822582  0.56616230673067
 6  8.90662148344834 -1.87922275587559 -0.03151093359336
 6  9.49829621132113 -3.25420606100610  0.21295783808381
 6  9.98263884298430 -0.68041827922792  0.45974849034903
 6  11.34148145054505 -0.88401800870087 -0.11561032723272
 6  12.20623831243124  0.36908153565357  0.17921476907691
 6  13.48548100390039  0.41473634353435 -0.60902566576658
 6  14.41167946694669 -0.82767216981698 -0.38475262616262
 6  14.23839977957796  1.74469064066407 -0.03990324512451
 6  15.47465165556556  2.10368839703970 -0.96915191019102
 6  16.09852243664366  3.39776452925293 -0.57171778497850
 6  17.35331058015802  3.86314415601560 -1.33577751295129
 6  17.07177976767677  4.04628952065207 -2.82574479867987
 6  17.87826723282328  5.19790505580558 -0.71901136003600
 1 -2.81139686248625  1.00514478987899  3.64714518291829
 1 -6.43090106890689  5.54528990939094  0.61372036373637
 1 -8.81818222542254  1.11653195609561 -3.06301177997800
 1 -3.45546661146115 -3.36734204960496  1.77658571937194
 1 -1.66888401230123 -1.24710237183718  2.77122839893989
 1 -3.12897267636764 -2.76541970317032  4.33837738173817
 1 -2.97743853655366 -1.16177608200820  4.67861989178918
 1 -4.65771828352835 -1.60759984088409  3.86033998449845
 1 -2.28217353105310 -3.25364488178818 -0.43053367716772
 1 -1.60820865326533 -1.74403351965197  0.24502262386239
 1 -0.45220065356536 -2.88512980858086  2.25503972267227
 1 -1.28561328292829 -4.37360449164917  1.97924972297230
 1 -1.79404951875187  3.75560508490849  3.76942285198520
 1 -2.82307329742974  4.94477168316832  4.69415567326733
 1 -2.95762875787579  3.13340433793379  4.86115112111211
 1 -5.26114917881788  6.69076327072707  2.15808112951295
 1 -10.04518365186519  2.98568922602260 -3.31459471117112
 1 -10.17268806670667  4.67677152125213 -2.68629892059206
 1 -9.66883668346835  4.38375678967897 -5.32543774607461
 1 -8.30518002740274  5.20653039843984 -4.38715867086709
 1 -8.06435628462846  3.57372673147315 -4.53003292809281
 1 -7.93910149974998 -1.31419196209621 -4.80080107840784
 1 -8.35808679167917 -2.89208261336134 -3.81425406240624
 1 -9.47002708220822 -1.26106292969297 -3.57747465416542
 1 -4.28021537893789 -3.96621144774478 -1.38388167506751
 1  2.41493262626263 -6.27246518951895  0.95912186908691
 1  2.04823556695670 -5.06355333143314 -0.56740018961896
 1  3.56967909020902 -4.32246152795279  2.03561856945695
 1  2.64309929662966 -3.15377099819982 -1.56509905090509
 1  3.68079269256926 -1.98862242154215 -1.67002947344734
 1  4.32508468246825 -3.80322405160516 -2.03567249314932
 1  4.73362340324032 -1.33438986298630  0.56761864536454
 1  5.42560108740874 -2.63462509490949  1.97762264256426
 1  6.75328285498550 -3.66495968806881 -0.08974109010901
 1  6.35084524492449 -2.05699330833083 -1.09217981348135
 1  7.22628155945595 -0.68689201430143  0.49248649414941
 1  7.58951105400540 -1.91820840394039  1.58716310161016
 1  8.69198330763076 -1.89509778497850 -1.01415475357536
 1  8.79221374007401 -3.92218098949895 -0.18714250665066
 1  10.39674901570157 -3.37179138123812 -0.45233534703470
 1  9.86921598299830 -3.26335742724272  1.18625906860686
 1  9.50710986158616  0.22718844504450  0.16626198999900
 1  10.15040513801380 -0.80717725162516  1.62823236323632
 1  11.69662480378038 -1.77605763766377  0.31975760256026
 1  11.45475156185619 -0.92455536043604 -1.33722505610561
 1  11.72490352385239  1.22718714791479  0.06941738653865
 1  12.31693651695169  0.26864805620562  1.34522280248025
 1  13.34466126682668  0.49753418571857 -1.68894113281328
 1  14.42503184148415 -1.33780199289929  0.67354303430343
 1  13.76691226222622 -1.65219423572357 -0.94198051955196
 1  15.36558754715472 -0.74247744594459 -0.75952284478448
 1  13.52391058525853  2.64570919001900 -0.16112790049005
 1  14.44699139943994  1.38995928512851  1.06324353825383
 1  16.22298395419542  1.32451106380638 -0.84208069876988
 1  15.42752833623362  2.00839475227523 -2.12844422412241
 1  15.45855726032603  4.25380075807581 -0.63285528362836
 1  16.35902867296730  3.22148879027903  0.48828872927293
 1  18.09644332573257  3.03674516571657 -1.18014709430943
 1  16.23235395579558  4.98181471037104 -2.85643800360036
 1  18.11816774027403  4.34610412371237 -3.36686129122912
 1  16.59015921612161  3.07364843484348 -3.27563559815982
 1  18.41335738293829  4.99505072257226  0.29873153735374
 1  18.70866838913891  5.63475762796280 -1.30397731213121
 1  17.01151270217022  6.03280278337834 -0.42629669096910
 1 -4.87242254365437 -7.86370580368037  0.19804626692669
 1 -6.33526795709571 -7.12582966956696  0.64342785028503
 1 -4.72820098869887 -6.94693626922692  1.59583404000400
 8 -7.80657824942494  6.88596509730973 -0.32267005100510
 1 -8.75997429452945  6.24615025992599 -1.99359504230423

