%nproc=4
%Mem=4GB
# td=(NStates=1) iop(3/107=0140000000,3/108=0140000000) iop(3/107=0140000000,3/108=0140000000) CAM-B3LYP/6-31G(d,p) 

TD

0 1
12 -5.70851235783578  1.28644351865187  0.09463806900690
 6 -5.03445383258326 -2.11087955125513 -0.32614948174817
 6 -3.44820360946095  1.12098238303830  2.65360073337334
 6 -6.17582637833783  4.45046831103110  0.71076128492849
 6 -8.05146091319132  1.19885073577358 -2.36195386888689
 7 -4.42328658195820 -0.24531272307231  1.03361470027003
 6 -4.35239876737674 -1.60977467906791  0.70838318791879
 6 -3.18752187668767 -2.27687098989899  1.49004336803680
 6 -2.84710788178818 -1.28170106100610  2.64831138723872
 6 -3.58154558195820 -0.08443107080708  2.10448503370337
 6 -3.37146018541854 -1.70720416181618  3.93529622902290
 6 -1.86837203040304 -2.71537894719472  0.61196650215021
 6 -0.98826046954695 -3.58925650625063  1.36334992299230
 6  0.23677877837784 -3.80077391809181  0.58330652535254
 8  0.52275233953395 -3.21178849244925 -0.50301653585359
 8  1.02132897859786 -4.77969758705871  1.18154276157616
 7 -4.89905072137214  2.59745912281228  1.46766699839984
 6 -4.04103619341934  2.32059948164816  2.41713231653165
 6 -3.79987949164917  3.62754125632563  3.15523607980798
 6 -4.64660521322132  4.56533806210621  2.55250452175218
 6 -5.23750985518552  3.96705480068007  1.50965705800580
 6 -3.01231659475948  3.72049942574257  4.35713990339034
 6 -4.76046257685769  5.99880730123012  2.97313681848185
 8 -4.13536358435844  6.46497438543854  3.98127202710271
 7 -6.94154795469547  2.63464336013601 -0.68626028232823
 6 -6.92262497729773  3.92682229942994 -0.41178286698670
 6 -7.95060024642464  4.67883460826083 -1.27295140464046
 6 -8.47694714801480  3.65518244814481 -2.05568451285129
 6 -7.80166905740574  2.41364737353735 -1.75324127062706
 6 -8.32093508440844  6.07343725312531 -1.20494000280028
 6 -9.49472383568357  3.80505090329033 -3.13406803960396
 6 -8.87274872857286  4.01417956415642 -4.55041144514451
 7 -6.35807422642264 -0.13322834053405 -1.10097518951895
 6 -7.32426195579558 -0.00213628222822 -2.10926513721372
 6 -7.59162666986699 -1.34862656625663 -2.71528405100510
 6 -6.69982953175318 -2.22333190499050 -2.15398156385639
 6 -5.89888830423042 -1.41729529462946 -1.15244137453745
 6 -8.56736219401940 -1.72921304730473 -3.70839773597360
 6 -6.23737740484048 -3.58063364726473 -1.92923647874788
 8 -6.49978437393739 -4.45765346374638 -2.64934119921992
 6 -4.99068763086309 -3.59815786838684 -0.87695001480148
 6 -5.18122559995999 -4.61722716381638  0.13521719351935
 8 -5.64550032163216 -4.39675868396840  1.31475783918392
 8 -5.00665036323632 -5.84065526192619 -0.31982512711271
 6 -5.31095866006601 -6.91187304060406  0.59832166196620
 6  2.35686665986599 -5.03745486568657  0.55522947734773
 6  3.33597813281328 -4.04242440334033  0.94162206200620
 6  4.10562995319532 -3.23138600870087  0.12391602660266
 6  3.85367970687069 -3.02715765706571 -1.34536404090409
 6  5.19730615641564 -2.44597964556456  0.75083888268827
 6  6.58704357565757 -2.75597852305230  0.12807427482748
 6  7.57188251185119 -1.77078643414341  0.61983767426743
 6  8.91977279857986 -1.89147398099810 -0.03561134363436
 6  9.60929731143114 -3.27242788318832  0.13907044934493
 6  10.01871245034503 -0.87075731313131  0.50395291079108
 6  11.35477277967797 -0.79430903780378 -0.12364113031303
 6  12.27640532913291  0.36485111261126  0.33610045764576
 6  13.58023047884788  0.37183205310531 -0.60375513871387
 6  14.45443374237424 -0.82866226882688 -0.42731688258826
 6  14.35005094469447  1.68421459305931 -0.25021427622762
 6  15.54425861626163  2.04217224542454 -1.06215121012101
 6  16.11279386378638  3.45567031983198 -0.69038965216522
 6  17.34786003510351  3.78001584318432 -1.47016095129513
 6  17.21311390109011  4.09826471817182 -2.87883010721072
 6  18.01826123222322  4.99459472477248 -0.70708016691669
 1 -2.73571929472947  1.22535681108111  3.56952742114211
 1 -6.24226220502050  5.54482986338634  0.68915790749075
 1 -8.77186759395940  1.18896919981998 -3.16640211901190
 1 -3.76501756655666 -3.22581789718972  1.85179324012401
 1 -1.78910603450345 -1.30560822242224  2.60725200130013
 1 -3.08245802490249 -2.58289145034503  4.38964250825083
 1 -2.96068686138614 -0.83419332373237  4.62288431823182
 1 -4.57850036173617 -1.85337441834183  3.92444639513951
 1 -2.08277359105911 -2.91980149744975 -0.47353797759776
 1 -1.03716154855486 -1.73034215051505  0.46216433803380
 1 -0.69510494399440 -3.00458175377538  2.22151637033703
 1 -1.27063178477848 -4.71426855805581  1.41464326232623
 1 -1.82063217701770  3.52476200060006  4.07257316701670
 1 -3.03318430853085  4.67841504750475  4.74820107780778
 1 -3.47178017301730  2.89468046554655  5.07381238723872
 1 -5.40056312021202  6.67486168056806  2.16376169756976
 1 -10.16743587708771  2.87878853595359 -3.07729098079808
 1 -10.42333313121312  4.57294113821382 -3.05326561726173
 1 -9.65035483528353  3.98882729672967 -5.33692889518952
 1 -8.46482599199920  4.84609435483548 -4.69414936993699
 1 -8.19136898589859  3.22665202400240 -4.70722064686469
 1 -8.52322991259126 -0.81085162806281 -4.59824082238224
 1 -8.28007899089909 -2.83860726582658 -4.19635227222722
 1 -9.55040512001200 -1.67492431583158 -3.39063597029703
 1 -4.09560691809181 -3.79739456605661 -1.35370865776578
 1  2.44120525352535 -6.02568051105110  1.04125008190819
 1  2.11171191459146 -5.13542051815181 -0.51842529212921
 1  3.57399952225223 -4.10336961876188  1.99187419501950
 1  2.90728571527153 -3.43431905300530 -1.52133467446745
 1  3.73650826412641 -1.82461602090209 -1.60123259375938
 1  4.55148732273227 -3.49188291749175 -1.77445637153715
 1  4.92615265616562 -1.52942936693669  0.61020290379038
 1  5.14185271257126 -2.47987962036204  1.86341122142214
 1  6.91327885458546 -3.76203939603960  0.36511439543954
 1  6.48891905230523 -2.76595420442044 -0.98606920242024
 1  7.31092002330233 -0.59552287738774  0.30223746924692
 1  7.52893499639964 -1.49193577667767  1.73468785408541
 1  8.88834294359436 -1.68144641984198 -1.14796813491349
 1  8.90607512621262 -3.98467723912391 -0.18555234763476
 1  10.68635797659766 -3.39580378247825 -0.10330044354435
 1  9.68422748414841 -3.57962905440544  1.36230667336734
 1  9.43019216981698  0.20316604280428  0.42465782958296
 1  10.21391148864886 -1.13605013891389  1.65957549754975
 1  11.83061820312031 -1.68447847974798  0.00467609440944
 1  11.24885097179718 -0.80421332623262 -1.16852818641864
 1  11.78240927442744  1.23005743494349  0.21966241104110
 1  12.48781360466046  0.13080427182718  1.34543282348235
 1  13.45758255895590  0.44248868116812 -1.73893613231323
 1  14.81838117641764 -0.91246945964596  0.74323000300030
 1  13.97080265126513 -1.77868688498850 -0.88889521102110
 1  15.23061404980498 -0.71078427662766 -1.17812470497050
 1  13.42493068726873  2.42923754285429 -0.40312209990999
 1  14.68065476577658  1.63029331853185  0.77243445734573
 1  16.35238689448945  1.27300591329133 -0.91303779447945
 1  15.38437402080208  1.96456036883688 -2.20197157685769
 1  15.45529693429343  4.30041541954195 -0.94831682978298
 1  16.15200797089709  3.41947858925893  0.32777267766777
 1  18.03812749414941  3.00825231643164 -1.26016509610961
 1  16.53204392479248  5.02214874377438 -3.26749910971097
 1  18.26592251575158  4.29938945224522 -3.21989659475948
 1  17.03648384858486  3.17018808880888 -3.37411544614461
 1  18.04153020022002  4.58338955645565  0.28648031223122
 1  19.28191571387139  5.25037919011901 -1.15987290169017
 1  17.49099064996500  6.17672717581758 -0.52589665096510
 1 -5.10661596299630 -7.96978641174117  0.24011047334733
 1 -6.37149157945795 -6.95529261586159  0.53839734723472
 1 -4.99340750935093 -6.67026860246025  1.72240669726973
 8 -7.86169376097610  6.85342184298430 -0.36148393239324
 1 -9.18609690679068  6.11491713661366 -1.92630831363136

