%nproc=4
%Mem=2GB
# td=(NStates=1) iop(3/107=0140000000,3/108=0140000000) iop(3/107=0140000000,3/108=0140000000) CAM-B3LYP/6-31G(d,p) 

TD

0 1
12 -6.74927749984998  0.67043618771877  0.11975959545955
 6 -4.36760386688669 -2.11458988078808  0.33539381638164
 6 -4.16093790919092  2.74636626972697  0.76588947054705
 6 -9.08315101980198  3.34274829892989 -0.18190769246925
 6 -9.40575867346735 -1.50856388598860 -0.74133419211921
 7 -4.73870894279428  0.39614901260126  0.59074810691069
 6 -3.92961022662266 -0.84331403820382  0.68700925632563
 6 -2.49410282888289 -0.61838359755976  0.96480854315432
 6 -2.61551151695169  0.98076822562256  1.33590575307531
 6 -3.95008127102710  1.39005909110911  0.87413218791879
 6 -2.30407669336934  1.07906970287029  2.79326388918892
 6 -1.56186493489349 -0.86249881328133 -0.13932260596060
 6 -0.18876699499950 -1.25459716631663  0.46675574907491
 6  0.89102018121812 -1.37307454435444 -0.54425259905991
 8  0.92125219331933 -1.07287990049005 -1.66936792699270
 8  1.78660894749475 -2.25868616721672 -0.02417734023402
 7 -6.64064580678068  2.55783615361536  0.32852660056006
 6 -5.53559412031203  3.21666030923092  0.65471176737674
 6 -5.87855207040704  4.74875456025603  0.74419928852885
 6 -7.28520923432343  4.92768885938594  0.46567315061506
 6 -7.95279698359836  3.65044385278528  0.20434526592659
 6 -5.00622554285428  5.90728815931593  0.96711437943794
 6 -8.07253881518152  6.32233915401540  0.40369989368937
 8 -7.71990590679068  7.29848146474647  0.74961281808181
 7 -8.80411396489649  0.76571743094309 -0.47484013311331
 6 -9.59586325872587  1.95077981328133 -0.62768382068207
 6 -10.93600023032303  1.52386225732573 -0.86666244744474
 6 -11.00204456195620  0.22702360676068 -1.03268412391239
 6 -9.74334599789979 -0.20707887108711 -0.88092016871687
 6 -11.94457123242324  2.59126531963196 -1.05944059485949
 6 -12.18827194769477 -0.58018158045805 -1.20637877157716
 6 -12.32378924102410 -1.18335050025003 -2.90696349104910
 7 -6.87796427932793 -1.29625218651865 -0.17634027852785
 6 -8.08496115771577 -2.11136113281328 -0.54068726672667
 6 -7.53347093219322 -3.62172949534953 -0.54873588368837
 6 -6.21535715691569 -3.53870303120312 -0.23941220182018
 6 -5.82045833453345 -2.18226704120412  0.00674685898590
 6 -8.37509603310331 -4.66941431923192 -0.76876969286929
 6 -5.10238644314431 -4.54615041314131  0.05251327702770
 8 -4.97956970567057 -5.75281581988199  0.06142664926493
 6 -3.89817354275428 -3.51328188738874  0.35269991719172
 6 -3.23542705360536 -3.74352052755276  1.69851956495650
 8 -3.85692093219322 -3.93784051885189  2.69438810861086
 8 -1.86922859775978 -3.58048435373537  1.77169710891089
 6 -1.05077359945995 -3.74985007510751  3.00920534573457
 6  3.05308720152015 -2.41344652155216 -0.79252049614961
 6  4.15181894929493 -1.40099710081008 -0.50800633293329
 6  4.90393114851485 -1.05771264266427 -1.64932113371337
 6  5.04963894769477 -1.64011714641464 -3.03784076627663
 6  6.15230905550555 -0.07914556745675 -1.38379493799380
 6  7.49495818981898 -0.70532631473147 -0.86839357665767
 6  8.48903146344634  0.33142877747775 -0.39464794529453
 6  9.77018010741074 -0.40752767306731  0.01773346764676
 6  9.58469598589859 -1.25637445214521  1.23717808660866
 6  10.90145247524752  0.60223507770777  0.10283512191219
 6  12.24419969046905  0.06424773197320  0.11214952615262
 6  13.59274081668167  0.89297657235724  0.21849474787479
 6  15.02343867906791  0.10643392149215  0.25154981708171
 6  15.16546153425343 -0.22121440194019  1.81957188118812
 6  15.84878450685069  1.36731163316332 -0.03914070877088
 6  17.36319579767977  0.79053427782778 -0.09198607250725
 6  18.54367391479148  1.84477166836684 -0.23309345614561
 6  19.80152235333533  1.12815130993099 -0.51268135183518
 6  19.78337813911391  0.57833326362636 -1.94654044524452
 6  21.03500066896690  2.20211162916292 -0.33789888578858
 1 -3.70298093639364  3.72378362936293  1.12771217291729
 1 -9.58705268776878  4.22491157625763 -0.65709934383438
 1 -10.23862635423542 -2.38540894019402 -0.90036286218622
 1 -2.21224374117412 -1.43084070187019  1.86229627792779
 1 -1.85500483908391  1.41870234643464  0.78680513391339
 1 -1.32579396309631  0.75870418481848  3.16485719681968
 1 -2.10771894579458  2.12923149954995  3.18665478327833
 1 -2.96887922042204  0.46628451375138  3.40611648074807
 1 -1.99590861116112 -1.86402767576758 -0.57896568336834
 1 -1.50288545754575 -0.21782325522552 -0.71550134093409
 1  0.32450044834483 -0.39689112241224  1.00417628282828
 1 -0.18629234903490 -2.24463079687969  1.24424465656566
 1 -4.12497702810281  5.44992282018202  0.38515347304730
 1 -5.37583786438644  6.96365904180418  0.69975688178818
 1 -4.56230725892589  5.83296225722572  2.20801857415742
 1 -9.05524853895390  6.12314742394239 -0.00284666046605
 1 -12.42409196279628 -1.30138100560056 -0.06480090729073
 1 -12.97038325332533  0.06193259305931 -1.11163880028003
 1 -13.37603542664266 -2.20777289268927 -2.65136225332533
 1 -12.31868883268327 -0.62537511601160 -3.85119728922892
 1 -11.52284910931093 -1.74154747174718 -3.12359896729673
 1 -8.36247543084308 -4.80210676627663 -2.01553378137814
 1 -7.67341255585559 -5.80196020862086 -0.48654830673067
 1 -9.37279455945595 -4.49727168836884 -0.13878926942694
 1 -3.06768635003500 -3.64548827372737 -0.49638794559456
 1  3.48092970837084 -3.44067134093409 -0.40073579067907
 1  2.93994828362836 -2.49690560556056 -1.86195643094309
 1  4.00931825952595 -0.66031878027803  0.55098870047005
 1  4.01520457745775 -1.20764423692369 -3.34436455145515
 1  5.82821640004000 -1.26246492189219 -3.45688691259126
 1  5.32523635103510 -2.83421603590359 -3.01803598739874
 1  6.20503092499250  0.67741307870787 -2.10359297649765
 1  5.89844495389539  0.55530107790779 -0.74801906530653
 1  7.25829700860086 -1.62872106920692 -0.07918619701970
 1  7.86895229362936 -1.30554934523452 -1.86453592949295
 1  8.61430356175617  1.04422501730173 -1.21072385768577
 1  8.25773427152715  0.87521270947095  0.36838254665467
 1  9.85714816191619 -0.86242368606861 -0.79625678327833
 1  8.61353359765977 -1.43223203890389  1.05661402220222
 1  10.38173424282428 -2.03690757195720  1.51082297369737
 1  9.52837604920492 -0.31984320672067  2.05847715281528
 1  10.71529516731673  1.25940870077008 -0.92732990459046
 1  10.89340908750875  1.04546342194219  1.05765964626463
 1  12.09705724792479 -0.78410084958496  0.41724540784078
 1  12.10482263626363 -0.28740696129613 -0.77752074957496
 1  13.46461133113311  1.44306385138514 -0.84425332993299
 1  13.56654869966997  1.51836608790879  0.96935272467247
 1  15.21500292609261 -0.63680119611961 -0.36722491369137
 1  14.77458735863586  0.66552694819482  2.71241401440144
 1  14.40960823432343 -0.74464213611361  2.00933843194319
 1  16.33054008710871 -0.54173775687569  2.06505298299830
 1  15.52041317621762  1.69795978937894 -1.08368834353435
 1  16.09896392899290  2.42617215271527  0.73810213341334
 1  17.61374268936894  0.40586375697570  0.89204939163916
 1  17.36747427162716  0.02655082428243 -0.69234061146115
 1  18.26380138723873  2.54350089788979 -0.94021701000100
 1  18.44703469956996  2.48349225612561  0.84701137163716
 1  19.69394195539554  0.17132997919792  0.23146649744975
 1  19.94397271527153  1.62716776637664 -2.43553567876788
 1  20.57734202420242 -0.28762056385639 -2.13027716111611
 1  18.69185191219122  0.05269755135514 -2.10277835253525
 1  20.99427620622062  2.40915049414942  0.75387614121412
 1  22.09214695499550  1.54385096779678 -0.64772748774877
 1  20.86020267316731  3.02359984718472 -1.21953674997500
 1  0.03326770167017 -4.27068981838184  2.65370371837184
 1 -1.71400108110811 -4.73758103180318  3.80084072067207
 1 -0.49915392869287 -2.28052652975297  3.18961311451145
 8 -11.69380775507551  3.79509430863086 -0.86162797649765
 1 -13.00423093459346  2.01475271537154 -1.50970157515752

