%nproc=4
%Mem=2GB
# td=(NStates=1) iop(3/107=0140000000,3/108=0140000000) iop(3/107=0140000000,3/108=0140000000) CAM-B3LYP/6-31G(d,p) 

TD

0 1
12 -6.67415998809881  0.58835797989799  0.13162078157816
 6 -4.33512061856186 -1.95487390919092  0.51091136813681
 6 -4.25516733213321  2.93714534763476  0.92148503010301
 6 -8.90149285398540  3.06975099919992 -0.18862836453645
 6 -9.28558665626563 -1.78677170677068 -0.45369542824282
 7 -4.69448452035204  0.49260865856586  0.61461049314931
 6 -3.94274153975398 -0.74737444424442  0.62367292269227
 6 -2.44041746034603 -0.46580834003400  0.92953501580158
 6 -2.50645061086109  1.09038918771877  1.20839300180018
 6 -3.99265552845285  1.52563264846485  0.93291806650665
 6 -2.25567185288529  1.28194999089909  2.68831339413941
 6 -1.74026277467747 -1.01882444584458 -0.32203087678768
 6 -0.29815793409341 -1.27368907550755  0.08985805930593
 6  0.70690176937694 -1.24684192109211 -0.93315148894889
 8  0.76081614971497 -0.92334494699470 -2.13757474767477
 8  1.72648293489349 -1.84570486908691 -0.37107202970297
 7 -6.43751549374938  2.62898326832683  0.16976072397240
 6 -5.51592215311531  3.34491313451345  0.59596589278928
 6 -5.84613882908291  4.79908959375938  0.57225209380938
 6 -7.17516823022302  4.82739883038304  0.32491907520752
 6 -7.55301700560056  3.53259206760676  0.14904973637364
 6 -4.99886480678068  5.85231266176618  0.85214288228823
 6 -7.79189075037504  6.06720364046405  0.00561008470847
 8 -7.13430734693469  7.10087170377038  0.07062491929193
 7 -8.88437199069907  0.62566342554255 -0.34766741584158
 6 -9.40712438483848  1.68485322062206 -0.42969402170217
 6 -10.77206383668367  1.48572844394439 -0.70507628882888
 6 -10.88250260776078  0.01426233063306 -0.83614446994699
 6 -9.64499616291629 -0.45966412961296 -0.43137521422142
 6 -11.91181795709571  2.46896308940894 -0.92842749354935
 6 -12.31707482798280 -0.68818238053805 -0.98715684938494
 6 -12.53482034413442 -0.29798196339634 -2.65139793449345
 7 -6.83171965486549 -1.38331089238924 -0.10093273777378
 6 -7.97977063866387 -2.28986898359836 -0.30992419041904
 6 -7.51600918601860 -3.60175749814981 -0.28987999809981
 6 -6.11336695789579 -3.59182834373437 -0.09332759335934
 6 -5.76518280698070 -2.22180099459946  0.10368655295530
 6 -8.41889041254125 -4.87796517431743 -0.51691450735073
 6 -4.97183338783878 -4.53411921002100  0.22290031573157
 8 -4.71721347004700 -5.69213975227523  0.04529503610361
 6 -3.92200592599260 -3.32300285948595  0.59335398259826
 6 -3.16271978287829 -3.63925010051005  1.87568728172817
 8 -3.87058229832983 -3.83388012281228  2.81657032683268
 8 -1.86954862976298 -3.59552585788579  1.52802274147415
 6 -1.21174969706971 -3.93486857695770  2.68505293049305
 6  3.01151304410441 -2.30077525442544 -1.25198644274427
 6  4.00420418781878 -1.15592259335934 -1.08238377067707
 6  4.94450520592059 -0.83826069746975 -1.86687288888889
 6  5.27887187098710 -1.41869500420042 -3.18980596279628
 6  6.09900372497250  0.06980932803280 -1.37379393789379
 6  7.36004469846985 -0.86913269536954 -1.00734747204720
 6  8.44097665796580  0.14087972257226 -0.62462094259426
 6  9.69947303670367 -0.55087200750075  0.11133282758276
 6  9.38995651195119 -1.30680949564957  1.30828519731973
 6  10.75049737973797  0.43388824302430  0.30469530793079
 6  12.25665093559356 -0.27848654145415  0.48161647284728
 6  13.30641218381838  0.82036931163116  0.65435833423342
 6  14.85242157735774  0.18438171627163  0.56937159925993
 6  14.92565755385539 -0.70288256875688  1.85996592059206
 6  15.79421905030503  1.46076097809781  0.45002820812081
 6  17.23911338943894  0.68906413081308  0.14064719081908
 6  18.39095864326433  1.95345253645365 -0.11326147294729
 6  19.71549375047505  1.24044253905391 -0.51408149184918
 6  19.91264106540654  0.84700013031303 -2.16528231943194
 6  20.80382755165517  2.45785720372037 -0.16638173407341
 1 -3.38097873617362  3.75572682368237  1.07011641334133
 1 -9.83346732923292  3.73781286638664 -0.21349498339834
 1 -10.10788327992799 -2.31126152545255 -0.76946977287729
 1 -2.29809232603260 -0.99056667446745  1.88635868416842
 1 -1.72749208780878  1.64731520772077  0.71301775517552
 1 -1.20851223492349  1.00257857225723  2.76409712081208
 1 -2.52527070097010  2.36133470987099  3.11980809860986
 1 -3.06729906240624  0.79139702500250  3.08417428652865
 1 -1.93606262656266 -2.00156142914292 -0.79824761156116
 1 -1.66101127012701 -0.16451792469247 -1.11550134093409
 1  0.02298029632963 -0.47813924722472  0.64723058825883
 1 -0.34249796959696 -2.26365269906991  0.89789002110211
 1 -3.82440697109711  5.32545037293729  0.41626658435843
 1 -5.19733001360136  6.94442711861186  0.67421432753275
 1 -5.02234326252625  5.79825878687869  1.89382715501550
 1 -8.61256427052705  5.91040614981498 -0.04993136893689
 1 -12.10679023262326 -1.89196006350635 -0.71563599079908
 1 -13.37234344934493 -0.51185478567857 -0.34285192159216
 1 -13.14253207630763 -1.09250136553655 -3.00807792489249
 1 -13.13727069086909  0.81523894539454 -3.11310347984799
 1 -11.72170899529953 -0.65268858585859 -3.39590619801980
 1 -8.72021120442044 -4.65683223882388 -1.33253548154815
 1 -7.60883609820982 -5.82385239783978 -0.76499615151515
 1 -9.05223250325033 -4.96524848604861  0.78385299479948
 1 -3.18796837823782 -3.28042176707671 -0.27014532133213
 1  3.24911652705271 -3.34282155595560 -1.07582329942994
 1  2.55572986178618 -2.26429234423442 -2.23227346264627
 1  3.71981930963096 -0.59149189758976  0.00096369796980
 1  4.56846990399040 -1.45466893939394 -3.89592970797080
 1  6.08673225162516 -1.07454613001300 -3.51063228712871
 1  5.49537336473647 -2.41204381868187 -3.00710489428943
 1  6.38508893079308  0.99785512291229 -2.27428004520452
 1  5.69074418381838  0.67742329012901 -0.44421868526853
 1  7.23253443234323 -1.52852104920492 -0.42338061646165
 1  7.21418681708171 -1.81987077737774 -1.98819829572957
 1  8.77408954035404  0.68877947274728 -1.61023380868087
 1  8.21326982508251  1.04011920012001  0.22379808820882
 1  10.05676812391239 -1.40584802850285 -0.31784894249425
 1  8.74019626392639 -2.02261107680768  1.35590395119512
 1  10.44018008740874 -1.91437531873187  1.34961685308531
 1  9.33497670927093 -0.90860208260826  2.13640494559456
 1  10.92491612941294  1.43650641054105 -0.56546371797180
 1  10.70102984958496  1.33470234583458  1.32893677397740
 1  12.09727726992699 -0.96080852035203  1.29175285858586
 1  12.13934608860886 -0.76128434903490 -0.72250524802480
 1  13.18738360836084  1.54565411041104 -0.16315522012201
 1  13.01225327012701  1.44864911621162  1.70554634403440
 1  14.85153657945795 -0.28523603960396 -0.46014420562056
 1  14.12986288618862  0.22789318481848  2.74838761176118
 1  14.40065733923392 -1.80363803570357  1.92855035313531
 1  16.23651068416842 -0.96156974007401  2.22708918661866
 1  15.78095923082308  2.45710570397040 -0.36703667836784
 1  15.96820085268527  2.29550908640864  1.41481980518052
 1  17.80270158525853 -0.02800963036304  0.88005819251925
 1  17.21297882208221 -0.01139297009701 -0.83499487688769
 1  17.81858686578658  2.74178072587259 -0.63457644594460
 1  18.31650164626463  2.54105801270127  0.93745041554155
 1  19.72605516671667  0.18344119031903  0.33655700650065
 1  19.43328164616462  1.65786083568357 -2.79655178037804
 1  20.84778906890689  0.17280547874787 -2.57964209760976
 1  19.06419914691469 -0.18697641604160 -2.12021009570957
 1  21.18983576217622  2.58346792589259  0.85437619121912
 1  21.89066680698070  2.14132071477148 -0.61856457145714
 1  20.59911656455645  3.46263375057506 -0.60122491879188
 1  0.14492886778678 -3.68975172457246  2.32120046804680
 1 -1.35546522752275 -4.90186746044604  2.44456509310931
 1 -1.89874388768877 -3.28923740084008  3.71930608380838
 8 -11.80948932323232  3.67321212041204 -0.74210602430243
 1 -12.77286779827983  1.93681492159216 -1.21645225022502

