%nproc=4
%Mem=4GB
# td=(NStates=1) iop(3/107=0140000000,3/108=0140000000) iop(3/107=0140000000,3/108=0140000000) CAM-B3LYP/6-31G(d,p) 

TD

0 1
12 -5.53245475207521  1.27982285658566  0.08202680788079
 6 -4.87301768896890 -2.13748221152115 -0.42360922772277
 6 -3.42076086518652  1.11319160396040  2.79503487678768
 6 -6.32006080178018  4.69500276447645  0.69924013281328
 6 -7.94715048214821  1.16221707240724 -2.37302497599760
 7 -4.37811206450645 -0.23435162696270  0.92817415621562
 6 -4.29655318281828 -1.56257995959596  0.52497484708471
 6 -3.23182630713071 -2.31425472827283  1.37588195189519
 6 -2.85733890489049 -1.32391528242824  2.62111866796680
 6 -3.58315574297430 -0.05941856955696  2.11744632983298
 6 -3.40566360576058 -1.85793923532353  3.90451315071507
 6 -1.96389158235824 -2.67586499579958  0.57509281478148
 6 -0.97171881538154 -3.49836741734173  1.40122371037104
 6  0.33840894139414 -3.72970681138114  0.62051024572457
 8  0.43142320662066 -3.54356166976698 -0.59197543174317
 8  1.09229607530753 -4.71449106640664  1.28966357365737
 7 -4.88469928622862  2.71500087698770  1.37218745044504
 6 -4.04100619041904  2.41023844554455  2.41401200450045
 6 -3.78107761146115  3.59303780598060  3.21158171437144
 6 -4.71244179687969  4.51857338563856  2.74492376367637
 6 -5.41992809700970  4.01633972917292  1.49173526582658
 6 -2.82674803790379  3.74740211601160  4.36086027542754
 6 -4.74622115271527  5.97846526702670  3.06915642044204
 8 -4.12701274927493  6.47843573157316  4.00191409130913
 7 -6.87427122702270  2.63949384518452 -0.65544720102010
 6 -6.97902061686169  4.03867348454845 -0.36370805950595
 6 -7.86101128752875  4.66415314011401 -1.26746085558556
 6 -8.45316476977698  3.61767869776978 -1.98219716411641
 6 -7.82522141264126  2.42401841064106 -1.72320826732673
 6 -8.16934992589259  6.03840374977498 -1.16129563836384
 6 -9.49208357165717  3.83871426962696 -3.12888752155215
 6 -8.95384683838384  3.91961010721072 -4.59492589658966
 7 -6.32916133513351 -0.15029004670467 -1.13673876587659
 6 -7.32261179077908 -0.05469153775378 -2.12559677037704
 6 -7.59376688388839 -1.31899360296030 -2.70474299689969
 6 -6.76326587538754 -2.17465703750375 -2.00913707940794
 6 -5.96092450785078 -1.42412597769777 -1.05720185058506
 6 -8.54155961376138 -1.67972809880988 -3.72341923812381
 6 -6.28819248634864 -3.51486707060706 -2.09586314141414
 8 -6.64656905240524 -4.50036773517352 -2.60901716681668
 6 -4.90782934503450 -3.54765281788179 -1.01475379517952
 6 -5.20454793219322 -4.59186462756276  0.09547321912191
 8 -5.71456722832283 -4.42573158125813  1.11600796419642
 8 -4.82263196139614 -5.76784798119812 -0.36700984558456
 6 -5.18831639583958 -6.86075792909291  0.50589241904190
 6  2.23622459565957 -5.12725384558456  0.61291524592459
 6  3.40466500150015 -4.22651281218122  1.03937183698370
 6  4.00676006620662 -3.20140301040104  0.26456009100910
 6  3.57825216411641 -3.06966190749075 -1.15566507100710
 6  5.12691911771177 -2.32848789638964  0.84930872967297
 6  6.49564443574357 -2.70746367156716  0.08118958635864
 6  7.65006032963296 -1.80467982348235  0.64600029052905
 6  9.08226904820482 -2.07054188778878  0.04850706820682
 6  9.70527690939094 -3.41577221762176  0.43645018731873
 6  9.95189576867687 -0.94262449984998  0.40195271077108
 6  11.38218552095210 -0.79962956985699 -0.26197496369637
 6  12.26513420202020  0.33411803930393  0.26449329692969
 6  13.56224868066807  0.40401527142714 -0.50650541374137
 6  14.35087338633863 -0.87206660926093 -0.18528267916792
 6  14.25091103070307  1.68035420702070 -0.21104035883588
 6  15.43779797019702  2.15640366856686 -1.00544553955396
 6  16.05703828822882  3.49292404520452 -0.75719633283328
 6  17.33144839393939  3.96574441604160 -1.51690562576258
 6  17.13399598929893  3.95264015571557 -3.05080730493049
 6  18.01148055415542  5.26905217051705 -0.96546600550055
 1 -2.83757948074808  1.20811508690869  3.63332380078008
 1 -6.62019999879988  5.83932931333133  0.89209820152015
 1 -8.45623603080308  1.29726002890289 -3.38675415421542
 1 -3.79927099189919 -3.25657097249725  1.69885794659466
 1 -1.91829895379538 -1.05865352695270  2.31605288138814
 1 -2.76241602070207 -2.71334449564957  4.41784532853285
 1 -3.34600539323932 -1.21870177457746  4.66978900870087
 1 -4.40833334503450 -2.25366444734473  4.05686963746375
 1 -1.90811612531253 -3.34743426072607 -0.16526715051505
 1 -1.34078191059106 -1.67540665696570  0.25726384798480
 1 -0.59702513601360 -2.91698299389939  2.27370158885889
 1 -1.32046676827683 -4.45599273047305  1.72274407240724
 1 -1.72868298209821  3.58446797119712  3.97100301000100
 1 -2.90963195329533  4.61763896989699  4.78827508520852
 1 -3.08015101010101  2.88941993949395  4.98716372237224
 1 -5.43867693159316  6.69592378677868  2.41670699209921
 1 -10.16844597809781  2.97920857795780 -2.98000125182518
 1 -9.87964876277628  4.96946079017902 -2.96807709840984
 1 -9.78743854365437  3.82861127512751 -5.46337153945395
 1 -8.16206571597160  4.78417816321632 -4.68908886388639
 1 -8.13388323732373  3.10387974677468 -4.97641756655666
 1 -8.75706329592959 -1.09895043794379 -4.73413441174117
 1 -8.47986896989699 -2.71738514361436 -4.26076871387139
 1 -9.68119819931993 -1.73305012841284 -3.38991589828983
 1 -4.24987234463446 -4.14966979357936 -1.49388267516752
 1  2.42165329832983 -6.16434437743774  0.90063602050205
 1  2.03720446384638 -5.14353132923292 -0.48703215281528
 1  3.60865298759876 -4.46883616541654  2.23696870447045
 1  2.65090007670767 -3.28549417051705 -1.43573611461146
 1  3.73041765506551 -1.76196975627563 -1.59997246774677
 1  4.26689886388639 -3.56813054225423 -1.91189011491149
 1  4.90835087598760 -1.18296472047205  0.72242412591259
 1  5.34645317261726 -2.65269690209021  1.94959984028403
 1  6.77299482618262 -3.63219641174117  0.02645052905291
 1  6.32673283368337 -2.43944155315532 -0.89077967346735
 1  7.38772770407041 -0.92329565466547  0.40315756125613
 1  7.52408451135113 -2.08041462456246  1.76538092339234
 1  8.89772388168817 -1.98005628082808 -1.02354569266927
 1  8.93874839353935 -4.28518729012901  0.22347855545555
 1  10.66131547234724 -3.51070527262726 -0.08997911141114
 1  9.93134219561956 -3.49216030753075  1.60163060576058
 1  9.45528467906791 -0.10537481128113  0.18216358015802
 1  10.08312841034103 -0.68707524142414  1.61269080908091
 1  11.90187532883288 -1.66858689058906 -0.21781615481548
 1  10.99945603230323 -0.81552445734574 -1.33898523212321
 1  11.57613864736474  1.39415384458446  0.14029447424742
 1  12.53707853115311  0.21910310171017  1.30564884508451
 1  13.12363916461646  0.51521595389539 -1.46245848454845
 1  14.73994333263326 -0.83297150985098  0.76759243924392
 1  13.63964953595359 -1.87566658295830 -0.42643896539654
 1  15.38290927932793 -1.00120331853185 -0.74207109960996
 1  13.77952614681468  2.63875849494949 -0.40982276997700
 1  14.30330703100310  1.53226351555155  0.82728994289429
 1  15.93916557235723  1.28415702840284 -0.76988347904790
 1  15.09163474687469  2.07324123692369 -2.09658103780378
 1  15.33381478607861  4.33361873987399 -0.77791979007901
 1  16.35898866896690  3.24991163256326  0.32666256665667
 1  17.97255093649365  3.08209970117012 -1.13894297389739
 1  16.22071279167917  4.70706723562356 -3.47450981078108
 1  18.06998292179218  4.09883939723972 -3.53343794889489
 1  16.83002320252025  2.88351942194219 -3.36722475707571
 1  18.39102514971497  4.93755497299730  0.17565923012301
 1  18.87651517381738  5.44484863706371 -1.48043495789579
 1  16.88510006090609  5.77387689078908 -1.04331839313931
 1 -5.09713501490149 -7.89185861896190  0.08908537083708
 1 -6.25621005130513 -6.49139622622262  0.80489399689969
 1 -4.60454862346235 -6.72280385598560  1.35765022162216
 8 -7.81296888848885  6.82792929372937 -0.32809059305931
 1 -8.83284158125813  6.42193783868387 -2.01118680148015

