%nproc=4
%Mem=2GB
# td=(NStates=1) iop(3/107=0140000000,3/108=0140000000) iop(3/107=0140000000,3/108=0140000000) CAM-B3LYP/6-31G(d,p) 

TD

0 1
12 -6.66403897599760  0.69799894399440  0.12191981148115
 6 -4.40266737323732 -2.01060948274828  0.27691796879688
 6 -4.19101091649165  2.83891552465247  0.94196707830783
 6 -9.02086479117912  3.27616164026403 -0.21847134883488
 6 -9.27971606920692 -1.62694572417242 -0.59689974867487
 7 -4.80805587748775  0.47500689838984  0.62755178727873
 6 -3.97083434903490 -0.77876758355836  0.46902745814581
 6 -2.51267468606861 -0.50013177237724  0.82212427472747
 6 -2.45044501030103  0.93217336613661  1.13775593809381
 6 -3.91079734263426  1.37895798099810  1.00340511521152
 6 -2.12537882358236  1.26111790769077  2.53885844864486
 6 -1.55100384878488 -1.11882444584458 -0.16575524922492
 6 -0.02978109640964 -1.40333203980398  0.39413848734873
 6  0.85179625882588 -1.62451968886889 -0.83896207000700
 8  0.82816288438844 -1.23481609410941 -1.91986297649765
 8  1.98601888848885 -2.19960025862586 -0.16426134863486
 7 -6.66948869106911  2.56100647064706  0.35379912781278
 6 -5.41290185108511  3.35274391759176  0.50890718691869
 6 -5.81193540874087  4.84607429222922  0.61539640824082
 6 -7.23839455285529  4.94910100060006  0.41415799909991
 6 -7.83238494239424  3.60628943734373  0.16126095749575
 6 -4.77019193949395  5.88144557505751  0.90273794179418
 6 -8.08117967926793  6.10895781588159  0.27459698339834
 8 -7.56270018621862  7.32068368496850  0.44048190499050
 7 -8.71805535903590  0.83019387858786 -0.44467711681168
 6 -9.47206087848785  1.88885362066207 -0.40757180948095
 6 -10.96587321762176  1.63295316641664 -0.70854663586359
 6 -11.03069742724272  0.20062096649665 -0.88270912641264
 6 -9.60700236353635 -0.30662882608261 -0.70380245694569
 6 -11.92961973727373  2.59775596869687 -1.03688833963396
 6 -12.27859097959796 -0.54435799809981 -1.22901103480348
 6 -12.08263512561256 -0.83860602580258 -2.71035383008301
 7 -6.88143462636264 -1.30197275857586 -0.01324396889689
 6 -8.04736739833983 -2.18317831453145 -0.30829402740274
 6 -7.59782736783678 -3.55000232263226 -0.41589259935994
 6 -6.26968258945895 -3.59051821272127 -0.14815307590759
 6 -6.03389967866787 -2.29292810731073  0.09085526982698
 6 -8.43035155865587 -4.64503188098810 -0.83009582548255
 6 -5.16382258675868 -4.56670246834684 -0.02755472977298
 8 -4.94387613631363 -5.63519405770577 -0.03364285768577
 6 -3.94625835123512 -3.40796135533553  0.54525917311731
 6 -3.54928843974397 -3.78028420392039  1.97152686568657
 8 -4.17416265636564 -3.74696143094309  2.91932060186019
 8 -2.21299297419742 -3.85138144344434  1.86371631083108
 6 -1.63179170127013 -4.18493358345835  3.12899732493249
 6  3.03539543234323 -2.43538871577158 -1.13998524262426
 6  4.07640140754075 -1.43191019211921 -0.86744227652765
 6  5.02496325172517 -1.12282915431543 -1.68739494109411
 6  5.32489647344734 -1.86864999969997 -3.10883786598660
 6  6.13329715431543 -0.15391304420442 -1.44174073257326
 6  7.52697139113911 -0.85480126222622 -0.89183592089209
 6  8.54443700400040  0.30291592619262 -0.31419990049005
 6  9.81350443984399 -0.45829274957496 -0.03976228192819
 6  9.67045456175618 -1.48190700540054  1.22677704650465
 6  10.99074140414041  0.62754760896090  0.22024686308631
 6  12.31337660816082 -0.11701039383938  0.05892420362036
 6  13.39730127272727  0.91806908160816  0.44816771517152
 6  14.89431576677668  0.37347062516252  0.42409707180718
 6  15.09024401250125 -0.51815409590959  1.69372929692969
 6  15.84211383978398  1.50756565856586  0.27855106040604
 6  17.33981345944595  1.04384960936094  0.04696782288229
 6  18.40699024642464  1.97651484268427 -0.23033318011801
 6  19.96645884698470  1.58579707450745 -0.36755683938394
 6  19.98805860716072  0.72478790909091 -1.58903469466947
 6  20.85220238913892  2.76575799379938 -0.69823491939194
 1 -3.18045868416842  3.42087333833383  1.02818221992199
 1 -9.54371835433543  4.07287637273727 -0.60755438933893
 1 -10.09104159575958 -2.45402580188019 -0.99555238113811
 1 -2.33987650445044 -0.98818643644364  1.70432048034803
 1 -1.85175451405141  1.53160363656366  0.31923837723772
 1 -1.34266565026503  0.66220453485349  2.95854656575658
 1 -2.20436861076108  2.37123569997000  2.78659477727773
 1 -2.79487181968197  0.58559644494450  3.16308217731773
 1 -2.12943196349635 -1.80552182518252 -0.98546633343334
 1 -1.20312548154816 -0.20343181608161 -0.93238302910291
 1  0.56945494379438 -0.67849928322832  1.27272313751375
 1 -0.21308502830283 -2.57891422522252  1.04436466856686
 1 -3.88801333173317  5.26817464536454  0.39263422112211
 1 -4.61948222882288  6.88397107300730  0.68307521362136
 1 -4.33480450865087  5.96136509750975  2.05528330063006
 1 -8.91365437953795  5.99857496669667 -0.36917329312931
 1 -12.22074162776278 -1.46143701120112 -0.66789121632163
 1 -13.31347756275628 -0.38445204540454 -1.17977561396140
 1 -13.11683950705071 -1.43944606000600 -2.72158927602760
 1 -12.21659862366237  0.37092451395140 -3.19732190169017
 1 -11.03144996939694 -1.40502381938194 -2.84990159755976
 1 -9.07252643594360 -4.26065262086208 -1.98947117511751
 1 -7.84544975957596 -5.46720673327333 -1.17716736863686
 1 -9.22518979897990 -4.91144310551055  0.01038564806481
 1 -3.24883446484648 -3.95755948084808 -0.37984629142914
 1  3.23314492989299 -3.52106938073807 -1.00626634373437
 1  2.97822211101110 -2.43395931093109 -2.10720095539554
 1  4.06275360306031 -0.99329207760776  0.11536513811381
 1  4.54388744574457 -1.96156962946295 -3.75290540554055
 1  5.74792837123712 -1.40450912631263 -3.79315053895390
 1  5.58455228262826 -3.10877349164916 -2.63419760356036
 1  6.23058348024803  0.65111044844484 -2.26859947714771
 1  5.71373648304831  0.39474502230223 -0.55725998939894
 1  7.28074925382538 -1.78450664776478 -0.11588986738674
 1  7.99159455785578 -1.53990278057806 -1.93663313921392
 1  8.70274240564056  1.06745734053405 -0.88069085438544
 1  8.59662816091609  0.68384357255725  0.55323103150315
 1  10.11109355645564 -1.04976241994199 -1.03401055865587
 1  9.01986423072307 -2.32506132183218  0.84947330813081
 1  10.83106917631763 -1.80842472367237  1.63399529092909
 1  8.64281749334934 -1.13899512191219  2.24771607670767
 1  11.09983362116212  1.59415217511751 -0.55935310691069
 1  10.81455120172017  1.00768964456446  1.06532041234123
 1  12.55066260846085 -0.83478591809181  0.86195987928793
 1  12.27207936193619 -0.56525474607461 -0.86037903540354
 1  13.36148101810181  1.95843538853885  0.24209530493049
 1  13.19683172797280  1.26625087638764  1.42863865326533
 1  15.01001242704270 -0.59656717271727 -0.35059325052505
 1  15.35939583948395 -0.01696130063006  2.65383815681568
 1  14.36881415491549 -0.97961563346335  1.51478897699770
 1  15.95106213931393 -1.19343292639264  1.44054053175318
 1  15.69673080798080  2.53625361876188 -0.59306928162816
 1  16.13509754235423  2.10134967046705  1.22866118931893
 1  17.47322863796380  0.12648581918192  0.90181036773677
 1  17.50019754395439  0.34708287748775 -0.70229160656066
 1  18.19394440154016  2.22320886868687 -1.00933392169217
 1  18.61396139223923  2.89152305920592  0.66597326782678
 1  20.27189975117512  0.73798664486449  0.47831118191819
 1  19.44055237323732  0.96302135173517 -2.44526665186519
 1  20.92304659465946  0.60668886708671 -2.01745587898790
 1  19.31955468246825 -0.18477619601960 -1.25915399009901
 1  20.48186496509651  3.91613119221922  0.08941969556956
 1  21.84209194949495  2.14897147984798 -0.54200691569157
 1  20.68313496639664  3.27294478167817 -1.75075987228723
 1 -0.70830645574557 -4.14855760516052  2.77116546454645
 1 -2.25679536053605 -5.01844911861186  3.42693332993299
 1 -2.07277129042904 -3.77658613571357  3.83119727292729
 8 -11.68000637493749  3.86172097129713 -0.92941475517552
 1 -12.91965247674768  2.19954119421942 -1.18885949094909

