%nproc=4
%Mem=2GB
# td=(NStates=1) iop(3/107=0140000000,3/108=0140000000) iop(3/107=0140000000,3/108=0140000000) CAM-B3LYP/6-31G(d,p) 

TD

0 1
12 -6.70958353045305  0.53922306640664  0.09946756625663
 6 -4.72756986348635 -2.17694611641164  0.71619189618962
 6 -4.15525734113411  2.64438607170717  0.97988086968697
 6 -8.78453115781578  3.19450347444744 -0.24280378207821
 6 -9.38910700830083 -1.60364339393939 -0.74128418711871
 7 -4.65071014291429  0.31041043874387  0.62581161326133
 6 -4.12083934953495 -0.94836454325432  0.82313286868687
 6 -2.48700211881188 -0.81350310951095  1.07644970727073
 6 -2.49017898369837  0.77337748654865  1.44863702620262
 6 -3.85974223712371  1.23471355655566  0.99079385408541
 6 -2.32841912761276  1.01084288018802  3.00628519131913
 6 -1.62360110851085 -1.16615917931793 -0.08699737343734
 6 -0.16699481778178 -1.60929263586359  0.30286936043604
 6  0.81302238143814 -1.61749898679868 -0.77661583538354
 8  0.67564763286329 -1.18386099859986 -1.95837682788279
 8  2.05582586918692 -2.39252955155516 -0.50845576807681
 7 -6.62176391859186  2.46837720772077  0.45765951385139
 6 -5.42617317821782  3.15790443364336  0.82848914511451
 6 -5.73020723592359  4.64760444524452  0.82602747134713
 6 -7.00768148154816  4.87270336083608  0.46507309060906
 6 -7.61243294719472  3.44294310271027  0.06411124252425
 6 -4.81812673297330  5.65329275977598  1.31292896089609
 6 -7.76134769606961  6.16957387748775  0.44261378507851
 8 -7.25635955215522  7.22372398899890  0.36375423222322
 7 -8.71422497599760  0.81501236043604 -0.51690433953395
 6 -9.32497617001700  1.88534326962696 -0.69573062536254
 6 -10.74750138043804  1.69222909400940 -0.95469125032503
 6 -10.93553791129113  0.37825873027303 -1.06425728122812
 6 -9.60195185848585 -0.19406756995700 -0.79908198489849
 6 -11.86056283158316  2.74769096219622 -1.21191584238424
 6 -12.10154327482748 -0.44028759105911 -1.49031716541654
 6 -12.11753861596160 -0.51751391659166 -3.04898769346935
 7 -7.07019350225023 -1.50625318661866 -0.04846749124912
 6 -8.20735339693969 -2.29571956865687 -0.42212541054105
 6 -7.70816840194019 -3.62504982738274 -0.50098110821082
 6 -6.47960358155816 -3.69984914581458 -0.03245150575058
 6 -6.16931322002200 -2.27541635613561  0.26845302960296
 6 -8.57016554005401 -4.74825220302030 -0.91027384328433
 6 -5.13876008050805 -4.47371316941694  0.00764879057906
 8 -4.78146989568957 -5.68477901620162 -0.12467196059606
 6 -4.05182890829083 -3.64695525472547  0.55205985318532
 6 -3.50810432133213 -3.84344051955196  1.94824453745375
 8 -4.09882512261226 -4.09297603240324  3.07200587038704
 8 -2.12729440434043 -3.79474577987799  1.79069900910091
 6 -1.12765128722872 -4.02760785088509  3.07236166136614
 6  3.21804369716972 -2.40537571447145 -1.34120536463646
 6  4.17646141354135 -1.28176517761776 -1.06653218551855
 6  5.07562831823182 -0.88283515491549 -1.75561176277628
 6  5.49456344014401 -1.56825996069607 -3.02648963116312
 6  6.04149797439744  0.24636698379838 -1.40579713821382
 6  7.27415610961096 -0.32581836393639 -0.62316905420542
 6  8.40784334463446  0.73067870247025 -0.32732121262126
 6  9.73317640704070  0.12174525422542  0.12062375667567
 6  9.28504602090209 -0.26050486518652  1.53979834863486
 6  10.96449877987799  0.93974882908291 -0.11259642124212
 6  12.30290556105611  0.27043835103510  0.45508381958196
 6  13.34295583818382  1.28482575727573  0.20449334773477
 6  14.75069140434043  0.54739801790179  0.63534819691969
 6  14.89990497859786  0.26054377387739  2.12583250725072
 6  15.93706333473347  1.52558746074607  0.15577878317832
 6  17.24196367446745  0.73380860526053 -0.24614148804880
 6  18.39594914231423  1.71246843804380 -0.55508565536554
 6  19.77661986308631  0.96503499829983 -0.62434251795179
 6  19.83065286658666 -0.40047461716172 -1.68406419761976
 6  20.92219938883888  1.94544596259626 -0.95747084298430
 1 -3.03681431973197  3.56320757175718  1.13393279497950
 1 -9.50724470697070  3.87167625272527 -0.14751838573857
 1 -9.92087457905791 -2.34577497679768 -1.06495932183218
 1 -2.16032854965497 -1.29021663946395  1.85374542284228
 1 -1.63298263686369  1.35493596979698  0.59478593199320
 1 -1.15378676237624  0.32965127952795  3.21710242134214
 1 -2.21006918081808  2.17222579897990  2.98792491029103
 1 -3.20750308280828  0.49218710401040  3.99664553365337
 1 -2.03289230953095 -2.32636390939094 -0.42066985378538
 1 -1.89889505850585 -0.25156662956296 -0.97755754655465
 1  0.38576657495750 -1.14917635093509  1.24303016821682
 1 -0.03126684648465 -2.40437677147715  0.92350258235824
 1 -3.47135166556656  5.40408823672367  1.10054501220122
 1 -5.22199247984798  6.78069074497450  0.99122602870287
 1 -4.76601762996300  5.73631259225923  2.61810958325833
 1 -8.84085709980998  5.93531864106411  0.10374399859986
 1 -12.09525907950795 -1.58116898439844 -0.84991941914191
 1 -13.10120633563356 -0.02518611881188 -1.00324796119612
 1 -13.04279210231023 -0.86382849824982 -3.30443756085609
 1 -11.89668663246325  0.28625604710471 -3.54130630013001
 1 -11.52025885028503 -0.99718303530353 -3.16895350275028
 1 -9.18100728402840 -4.30233678927893 -1.69067129512951
 1 -8.00535575017502 -5.52933294589459 -0.96599625152515
 1 -9.36620390039004 -4.79818177937794  0.11021563106311
 1 -3.10374995639564 -3.16413013791379 -0.00136844364436
 1  3.62214382978298 -3.24591186498650 -0.88116383348335
 1  3.21014530333033 -2.44194010901090 -2.43564379967997
 1  3.47191451915191 -0.63342609100910 -0.07602400080008
 1  4.66471952895290 -1.63906737923792 -3.73470358535854
 1  6.53896747514752 -1.15694436983698 -3.35129635353535
 1  5.76171999939994 -2.68479109340934 -2.83234741854185
 1  6.20204062596260  0.63522886028603 -2.70373299049905
 1  5.42480759015902  1.11981752955296 -0.87838210161016
 1  6.73484466336634 -0.95356355345534  0.37766948854885
 1  7.45230062846285 -1.45855464576458 -1.20710018591859
 1  8.50870300170017  1.21211180598060 -1.42139492479248
 1  8.31788028612861  1.50628581678168  0.28134384278428
 1  9.59969241634163 -1.02897034073407 -0.51373853145314
 1  8.06208845314531 -0.71680049574958  2.08791715251525
 1  9.82955902530253 -0.98852273347335  1.66863875527553
 1  9.02403561516152  0.95221399899990  2.02595390049005
 1  10.78156179397940  1.19635239513951 -1.10426759835984
 1  10.76610635723572  1.99539841544154  0.54493837413741
 1  11.94231177337734 -0.12380481998200  1.52838652195220
 1  12.64604675867587 -0.57749597019702 -0.08947194469447
 1  13.65929079907991  1.88348789378938 -0.51543044764476
 1  13.46220826562656  2.00067431873187  0.95635142454245
 1  14.72561398719872 -0.21554907090709  0.35468727752775
 1  15.07765766566657  1.13861425692569  2.80928370137014
 1  13.82292956645665  0.03079540764076  2.86852435053505
 1  15.78752578567857 -0.57018060116012  2.37606408410841
 1  15.60082121702170  1.88003799719972 -1.06559653435344
 1  15.96783081568157  2.60024956045605  0.38214653785379
 1  17.56598791389139  0.41841501210121  0.93140332703270
 1  17.19786731093109 -0.02958478927893 -0.76021739913991
 1  18.15252025912591  2.21693824162416 -1.60811379967997
 1  18.57147714381438  2.62338624552455  0.20405707620762
 1  19.81025358655866  0.48077092329233  0.50226357715772
 1  19.53121143914391 -0.09296424682468 -2.69582170737074
 1  20.75180947094709 -0.55564736653665 -1.97237137053705
 1  19.18092081908191 -1.27297501590159 -1.14906298099810
 1  21.17202398099810  3.11306088518852 -0.37922716911691
 1  21.90863860416042  1.26472305500550 -1.02104481948195
 1  20.89672632553255  2.53813130033003 -1.84675947224722
 1 -0.03356898199820 -4.38707145654566  2.41962031003100
 1 -1.92211189218922 -4.65660293399340  3.86218685528553
 1 -0.55371938523852 -2.79135761286129  3.31909606280628
 8 -11.52632100640064  3.95688048724872 -1.11345315901590
 1 -13.04313482498250  2.39288052815281 -1.33105371037104

