%nproc=4
%Mem=2GB
# td=(NStates=1) iop(3/107=0140000000,3/108=0140000000) iop(3/107=0140000000,3/108=0140000000) CAM-B3LYP/6-31G(d,p) 

TD

0 1
12 -6.68864143624362  0.67116626072607  0.08147576707671
 6 -4.58389549604961 -2.12677109890989  0.47837811481148
 6 -4.30601241664166  2.75464709780978  0.91597447904790
 6 -8.94517722242224  3.28276230033003 -0.20509001070107
 6 -9.29824792239224 -1.74918794839484 -0.73968402710271
 7 -4.69547461936194  0.42574197189719  0.37413644574457
 6 -4.06059332493249 -0.83552325912591  0.63806436183618
 6 -2.44148756735674 -0.37320908010801  0.88791085338534
 6 -2.48521848764876  1.07177732653265  1.15060722322232
 6 -3.96595285818582  1.45791587678768  0.81559633433343
 6 -2.19872615831583  1.52549434533453  2.53569813261326
 6 -1.59788853725373 -1.11994455785579 -0.20729940364036
 6 -0.22065018331833 -1.20401210781078  0.41810088358836
 6  0.80739181838184 -1.48029526642664 -0.56124429822982
 8  0.75228529662966 -1.13539615211521 -1.78814980518052
 8  1.94933522012201 -2.21053135173517 -0.10125504800480
 7 -6.68450019221922  2.64477484748475  0.42374612251225
 6 -5.68430899179918  3.33951259445945  0.81531782798280
 6 -6.01831604680468  4.87405709050905  0.88700356895690
 6 -7.37027774117412  4.89643573407341  0.45023160646065
 6 -7.88438014191419  3.47185599399940  0.19249408080808
 6 -4.82884780508051  5.93561099159916  1.12731039903990
 6 -8.01384294559456  6.12078899899990  0.24791431513151
 8 -7.82441635783578  7.21552316891689  0.62601045784578
 7 -8.83652720622062  0.70923178237824 -0.31272392149215
 6 -9.55539921232123  1.96356109140914 -0.39628068036804
 6 -10.93744037433743  1.64011388248825 -0.82896867806781
 6 -10.89602395989599  0.23572447684768 -0.92074292979298
 6 -9.61466312961296 -0.30202836603660 -0.70897297399740
 6 -12.01059783508351  2.60656684978498 -1.03673832463246
 6 -12.21959508000800 -0.55256881918192 -1.20308844254425
 6 -12.43625048714872 -0.76406857205721 -2.93323611831183
 7 -6.96575305820582 -1.28312087338734  0.02178953445345
 6 -8.07696035763576 -2.14134413111311 -0.38793199119912
 6 -7.65467305240524 -3.67992531493149 -0.38074908500850
 6 -6.23556917811781 -3.56946610751075 -0.08704696529653
 6 -5.94594088278828 -2.15347416191619  0.05727191149115
 6 -8.32534105760576 -4.73156053385339 -0.87079989588959
 6 -4.96755295979598 -4.27500329842984  0.07769579527953
 8 -4.61699344804480 -5.55662620092009  0.09812031863186
 6 -3.90441416681668 -3.34227478667867  0.48825347254726
 6 -3.29299281018102 -3.70267644314431  1.81829154215422
 8 -3.81370661076108 -4.01984871967197  2.93893256305631
 8 -1.96117779267927 -3.58513481878188  1.69215915511551
 6 -1.04894341644164 -4.16547163726373  2.91225565076508
 6  2.97723961676168 -2.44192936983698 -1.17563880798080
 6  4.04786855425543 -1.42722972407241 -0.78755428772877
 6  5.13760451585159 -1.34062093349335 -1.64875107670767
 6  5.29103308710871 -1.93333646834683 -2.98735571777178
 6  6.18183200780078 -0.17670532343234 -1.49832639113911
 6  7.51780047404740 -0.92320810291029 -0.95915265256526
 6  8.54679724002400  0.07972360696070 -0.82831131163116
 6  9.73521661106111 -0.47573449374938 -0.22059036473647
 6  9.57729524582458 -0.87964677937794  1.20329469826983
 6  10.95618794879488  0.71814666886689 -0.17156231783178
 6  12.42422769326933 -0.12883157595760  0.20335864706471
 6  13.61720326292629  0.98204547924792  0.29561245964596
 6  14.90633696889689  0.31394467256726  0.53116777887789
 6  14.93120810891089 -0.22149442994299  1.90812073607361
 6  16.02125175357536  1.37537243924392  0.44816802210221
 6  17.28631810991099  0.79086431083108  0.39426255235524
 6  18.37735728312832  1.82964015521552 -0.22398254505451
 6  19.82733493459346  1.21709020382038 -0.48706879057906
 6  19.75261506280628  0.52328775907591 -1.66812260346035
 6  20.85729289818982  2.19595101310131 -0.49670476637664
 1 -3.51492213051305  3.43342459345935  1.19390879257926
 1 -9.72499648214822  4.31106019111911 -0.37672130603060
 1 -10.04534702630263 -2.49399979927993 -0.63606643254325
 1 -2.21495401220122 -0.81704932273227  2.01131117941794
 1 -1.87643698229823  1.70590106630663  0.16215266866687
 1 -1.23166455015502  0.96985529992999  2.87159787088709
 1 -1.82530070397040  2.71897047344735  2.54316043384338
 1 -3.15937827032703  1.27133501880188  3.32760862996300
 1 -1.72062108240824 -2.19338061106111 -0.60761854865487
 1 -1.55677084608461 -0.34748622152215 -1.07741753255326
 1  0.00081808010801 -0.34898633193319  1.27631349654966
 1 -0.13834755455546 -2.05030136393639  1.04636486858686
 1 -3.96057058745875  6.00707853575357  0.28615357305731
 1 -5.42099237983798  7.05896857275728  1.24064097019702
 1 -4.39007003520352  5.64209317031703  2.13528130043004
 1 -8.95887890199020  5.92817792699270 -0.23916029182918
 1 -12.20149970357036 -1.45159602710271 -0.64172860006001
 1 -12.97417363236324  0.04108050785078 -0.60698833523352
 1 -13.28414623772377 -0.94062617801780 -3.21636875397540
 1 -12.32669963376338  0.04810223172317 -3.06073824332433
 1 -11.67224404880488 -1.40336365336534 -3.38803541094109
 1 -8.80611979527953 -4.32954951055105 -1.75037726572657
 1 -7.43196841144114 -5.72998301090109 -0.75434508640864
 1 -9.13103038303830 -5.00854281548155 -0.09112450295030
 1 -3.17543712511251 -3.35757948284828 -0.60574888168817
 1  3.21724333973397 -3.66773404720472 -0.61603732083208
 1  2.59663395219522 -2.33492940794079 -2.21950218551855
 1  4.02051937963796 -1.12073482188219  0.29464306590659
 1  4.42497555455546 -1.36143961646165 -3.69030914591459
 1  6.53738731713171 -1.60878955435543 -3.54236546044605
 1  5.35560938833883 -2.88191080538054 -3.12171635543554
 1  6.17713813571357  0.27815315271527 -2.52946556375638
 1  5.94209931933193  0.74578012581258 -0.86841110451045
 1  7.45376655555556 -1.53379157625763 -0.37086536493649
 1  7.58235363376338 -1.41958074837484 -1.77343681958196
 1  9.00904303570357  0.70987158195820 -1.85568835413541
 1  8.20743924202420  0.85464065226523 -0.24136842844284
 1  10.02586503360336 -1.38223566726673 -0.74265142274227
 1  8.90284252855286 -1.79419823552355  1.47919628042804
 1  10.32369843924393 -1.44692857405741  1.68029992139214
 1  9.51669488108811  0.11528030563056  1.85212651775178
 1  11.20668430623062  0.77969072897290 -1.68396556815682
 1  10.54437418401840  2.13025190079008  0.41525540584058
 1  12.10853839603960 -0.70359279877988  1.15957964126413
 1  12.63476563056306 -0.59817803840384 -0.53302630013001
 1  13.54604947494749  1.43021256625663 -0.68341724632463
 1  13.52493453825383  1.50519477077708  1.09894568396840
 1  15.15681710751075 -0.44841235723572 -0.36678486968697
 1  15.07846774667467  0.47960835633563  2.43386615961596
 1  14.15465273877388 -1.08655632753275  2.30484798289829
 1  15.53014004710471 -0.47149073217322  2.06498297599760
 1  15.54940607550755  1.90208020142014 -0.30514048874887
 1  16.04808884148415  2.28658819431943  1.09061738493849
 1  17.52067338243824  0.53145631623162  1.51119130583058
 1  17.37128465266527 -0.29595142594259 -0.29740111751175
 1  18.25457046414641  2.11957850565057 -1.06680966926693
 1  18.52926292239224  2.96337024392439  0.51030770127013
 1  20.17820038123812  0.63313615981598  0.67439078987899
 1  19.49758807680768  0.98718376797680 -2.76822894809481
 1  20.47863215321532  0.09150734893489 -2.00737487088709
 1  18.87351007800780 -0.34597231563156 -1.91095917061706
 1  21.03356013461346  2.82802238133813  0.66450720432043
 1  21.78160590089009  1.92944952765277 -0.69143185818582
 1  20.69951660456045  2.96939442664266 -1.36685148144815
 1 -0.36633225832583 -3.99038178757876  2.63076142414242
 1 -1.30202988398840 -5.14758203190319  2.97672830943094
 1 -1.34376839013901 -3.81760023712371  3.67386153935393
 8 -11.69711808610861  3.74073887308731 -1.21220303400340
 1 -13.01705221672167  1.88267950805080 -0.87723832883288

