%nproc=4
%Mem=4GB
# td=(NStates=1) iop(3/107=0140000000,3/108=0140000000) iop(3/107=0140000000,3/108=0140000000) CAM-B3LYP/6-31G(d,p) 

TD

0 1
12 -5.61796330293029  1.20073494779478  0.24720332553255
 6 -5.04968535573557 -2.10974943824382 -0.40151701850185
 6 -3.37490627972797  1.12606289108911  2.76615198849885
 6 -6.15873466916692  4.54551781598160  0.63442365116512
 6 -7.94492025912591  1.19396024672467 -2.38388606210621
 7 -4.39761401470147 -0.34390258205821  1.10352169096910
 6 -4.33111663916392 -1.63446714831483  0.68014036363636
 6 -3.32550567506751 -2.41340464326433  1.35143950765077
 6 -3.08145131613161 -1.37241013191319  2.60005656175618
 6 -3.55623305070507 -0.12893552125212  2.14638922412241
 6 -3.56465950535053 -1.93317675907591  3.95936863626363
 6 -2.03410860406041 -2.64917232653265  0.58110341584158
 6 -1.09481112461246 -3.51640922152215  1.36356994499450
 6  0.23405850635064 -3.73328716941694  0.73175136983698
 8  0.49385945024502 -3.30242755635564 -0.43317955215522
 8  1.06690353605361 -4.58810842814281  1.32894750205021
 7 -4.91193200950095  2.50001937883788  1.36806703840384
 6 -3.92975506530653  2.34466188788879  2.38459906320632
 6 -3.68687819151915  3.55050355255526  3.13964452065207
 6 -4.45784633733373  4.56545807410741  2.61336060736074
 6 -5.16732283648365  3.92573066826683  1.44534062636264
 6 -2.85212057515752  3.64595197099710  4.40247443684368
 6 -4.68189472007201  5.98303572407241  2.86961646644665
 8 -4.20826087408741  6.45741362936294  3.97178107800780
 7 -6.78282208210821  2.56440633643364 -0.77871952825283
 6 -6.80454316911691  3.85957557475748 -0.43682537123712
 6 -7.93284847124712  4.58779550435044 -1.09211332083208
 6 -8.33348280158016  3.68413534343434 -2.06143508790879
 6 -7.76749564006401  2.39098510731073 -1.69350529702970
 6 -8.20872386328633  6.04385429482948 -1.25213472227223
 6 -9.38352271557156  3.87845824402440 -3.18225285808581
 6 -8.76941839553955  4.09994814101410 -4.60839724372437
 7 -6.35772419141914 -0.15234025172517 -1.04617970997100
 6 -7.40609013861386 -0.04693076167617 -1.98852306300630
 6 -7.66499400660066 -1.31695339893989 -2.55931845444544
 6 -6.65819536833683 -2.13565313711371 -2.05846201190119
 6 -6.02280069546955 -1.44944850995100 -1.08625475587559
 6 -8.60034549234923 -1.64506463246325 -3.70958785498550
 6 -6.18645231233123 -3.59433501740174 -2.08137169226923
 8 -6.65133952945295 -4.55094279267927 -2.66711297639764
 6 -5.13553211531153 -3.52371042364236 -0.91013333313331
 6 -5.42196967436744 -4.68168360946095  0.07835150695070
 8 -5.96547231883188 -4.49348835693569  1.14895125852585
 8 -5.02355205340534 -5.83704490089009 -0.39091223582358
 6 -5.22762032623262 -6.89955180848085  0.55635746554655
 6  2.26254722792279 -4.86310743094309  0.61094504890489
 6  3.36054058905891 -3.92912307320732  1.06219411921192
 6  4.12355174537454 -3.16488935903590  0.18659229422942
 6  3.73692803170317 -3.05877081838184 -1.22982248674868
 6  5.19479590539054 -2.24886993459346  0.64373817261726
 6  6.56008087938794 -2.58962188738874 -0.00732926552655
 6  7.68725404900490 -1.82848220372037  0.59892558305831
 6  9.03616443774377 -2.03321815541554 -0.02059984248425
 6  9.63925030673067 -3.46866750715071  0.05639218151815
 6  10.03386396549655 -0.98635887328733  0.65022753825383
 6  11.32450975337534 -0.94323393029303 -0.14750351655166
 6  12.28543623222322  0.23068769626963  0.33940078767877
 6  13.58818127392739  0.45023989388939 -0.56966172937294
 6  14.57130542954295 -0.64237363996400 -0.33040719161916
 6  14.18110405000500  1.82485865746575 -0.25499475427543
 6  15.43154734513451  2.15116314451445 -1.07803279827983
 6  16.09701228562856  3.52806755955596 -0.80926153935394
 6  17.38564381348135  3.93780162176218 -1.40966490169017
 6  17.12603519321932  3.92307719941994 -2.91298352255226
 6  17.93324273037303  5.25919118441844 -0.85531499039904
 1 -2.76693241604160  1.06897117251725  3.67815828422842
 1 -6.45257323612361  5.59621500190019  0.79776876857686
 1 -8.82889329652965  1.23507381028103 -3.10882636143614
 1 -3.70867193199320 -3.25570088548855  1.94006206700670
 1 -2.00300742464246 -1.24049171077108  2.79570084618462
 1 -3.10504028312831 -2.81189435063506  4.16887043104311
 1 -3.32138293099310 -1.21571147554755  4.79834186398640
 1 -4.70454296599660 -2.05280436133613  4.19641359185919
 1 -2.42200751445144 -3.26125564286429 -0.27531815561556
 1 -1.46653448584858 -1.76793590989099  0.35828394999500
 1 -1.04599003250325 -3.15511680728073  2.49391361006101
 1 -1.33418814041404 -4.49370650185018  1.50531232923292
 1 -1.78355846964696  3.80536006040604  4.12406831653165
 1 -3.21894288438844  4.58109531553155  5.22202846054605
 1 -2.78967196219622  2.57706870437044  5.04716972297230
 1 -5.15155821972197  6.59147334173417  2.07569289068907
 1 -9.87567670117012  2.97619827692769 -3.09886313801380
 1 -9.97832863076308  4.76042988708871 -2.77906819751975
 1 -9.45164496429643  4.34500291429143 -5.47242244454445
 1 -8.04788429782978  4.99197894329433 -4.81626158115812
 1 -8.02960280928093  3.07285664446445 -4.92817274207421
 1 -8.46004359395940 -0.98597914081408 -4.65591658995900
 1 -8.16446742974297 -2.62699610471047 -4.24038667566757
 1 -9.66003608310831 -1.77231405480548 -3.51041794849485
 1 -4.26973433083308 -3.79004383098310 -1.40433372027203
 1  2.45495662866287 -5.83355129812981  1.02416837373737
 1  2.13830457385739 -4.56472344844484 -0.46024947454745
 1  3.69947206950695 -4.11088036983698  2.25592059965997
 1  2.48767375407541 -2.95000062116212 -1.19638217921792
 1  4.10001461476148 -1.98331189048905 -1.58874134463446
 1  4.38391056505651 -3.84156788598860 -1.96768569446945
 1  5.00183022392239 -1.28601502550255  0.44095597909791
 1  5.37444597189719 -2.29832146454645  1.65962084238424
 1  6.90722824952495 -3.77271046314631 -0.03620573657366
 1  6.74362452285229 -2.46157376637664 -1.05902649814981
 1  7.41554048534853 -0.83430675577558  0.55180242574257
 1  7.75625772867287 -2.09460604370437  1.47719210451045
 1  8.99890399969997 -1.88978725392539 -1.02528586668667
 1  8.87023154185419 -4.21184995639564 -0.13611740414041
 1  10.60991033183318 -3.61835603770377 -0.46296641014101
 1  9.49228829022902 -3.59504059555956  1.20195063776378
 1  9.51597074767477 -0.07633190699070  0.52802816661666
 1  10.21823192069207 -1.23786031993199  1.54517405740574
 1  11.86802194349435 -1.87390742264226  0.01852747954795
 1  11.35744183088309 -0.74701760666067 -1.17078841244124
 1  11.61343237673767  0.99735416461646  0.31042148694870
 1  12.79328415171517  0.04560575197520  1.33262154235424
 1  13.25933273397340  0.38682311461146 -1.70355259395940
 1  14.80284962326233 -0.92984119681968  0.61905758575858
 1  14.15028059905990 -1.69973899019902 -0.82831915341534
 1  15.46792778117812 -0.66366956515651 -0.94933182568257
 1  13.41974016821682  2.55819043814381 -0.14752654035404
 1  14.33247994829483  2.05459574877488  0.84834204810481
 1  16.26000765656566  1.20050866356636 -0.81014750545055
 1  15.28960454385439  1.91769568236824 -2.08518989868987
 1  15.39758116271627  4.30778615661566 -1.15961795989599
 1  16.08306107620762  3.51228787018702  0.27534743514351
 1  18.12098577997800  3.30591208240824 -0.97757683728373
 1  16.40044076447645  4.69876640554055 -3.18924128392839
 1  18.08652457595760  4.17025653895390 -3.31074567966797
 1  16.97056725692569  2.91926299629963 -3.24301233583358
 1  18.46234228142814  5.36175739323932  0.13801546574658
 1  18.79463698599860  5.54659881208121 -1.47430434483448
 1  17.22138368926893  6.02330183328333 -0.84384844614461
 1 -4.77233253465347 -7.80922035513551  0.10667713001300
 1 -6.38896332663266 -6.74340142674267  0.75936944444444
 1 -4.55041320992099 -6.53326490209021  1.41656611321132
 8 -7.78006559815982  6.89648614941494 -0.48995677967797
 1 -8.72947124422442  6.27964360926093 -2.25878156095610

