%nproc=4
%Mem=4GB
# td=(NStates=1) iop(3/107=0140000000,3/108=0140000000) iop(3/107=0140000000,3/108=0140000000) CAM-B3LYP/6-31G(d,p) 

TD

0 1
12 -5.59144065066507  1.28299317361736  0.19008761396140
 6 -4.99036942414241 -2.13365182848285 -0.47957482428243
 6 -3.37627641674167  1.11622190699070  2.78849422272227
 6 -6.23187198289829  4.50065332953295  0.71219142794279
 6 -8.00216598369837  1.09573042374237 -2.32394006750675
 7 -4.48242249554955 -0.29747793959396  0.99171050985098
 6 -4.25047857535754 -1.55055875747575  0.57159950955096
 6 -3.21891501600160 -2.28927223002300  1.38776314001400
 6 -2.97589076007601 -1.39647253815382  2.53582013811381
 6 -3.63446087348735 -0.04743737143714  2.10014459965997
 6 -3.69967300670067 -1.80697413881388  3.84704740414041
 6 -1.93074826802680 -2.63709111841184  0.56351165666567
 6 -0.93595523902390 -3.49468704930493  1.46140972897290
 6  0.30380548104810 -3.74480832153215  0.64252244694469
 8  0.50311037533753 -3.38175548914892 -0.46345257945795
 8  1.05811265696570 -4.71412102940294  1.33349795709571
 7 -4.89467028332833  2.61451082798280  1.54850508220822
 6 -3.98984107390739  2.36134355605561  2.46355695899590
 6 -3.68450795449545  3.66898540074007  3.12575313151315
 6 -4.55064561726173  4.61148267656766  2.59940921222122
 6 -5.26760286448645  3.94294238943894  1.55752184448445
 6 -2.77329269236924  3.84151152695270  4.30065425482548
 6 -4.66571310191019  5.98657607810781  2.95559506430643
 8 -4.02490253825383  6.46157404540454  3.94211811171117
 7 -6.86263006290629  2.61257115291529 -0.70410206650665
 6 -6.93971668646865  3.97357697489749 -0.35615730443044
 6 -7.97124231063106  4.64272099689969 -1.11139524902490
 6 -8.34609406270627  3.58845577547755 -2.08156710111011
 6 -7.76139503000300  2.39928593739374 -1.69254520102010
 6 -8.26476946784678  6.00127003640364 -1.12459196799680
 6 -9.39715407870787  3.84996539473947 -3.20325495829583
 6 -8.72325377907791  4.19602774897490 -4.46711311531153
 7 -6.33575199419942 -0.14365938363836 -1.11634672667267
 6 -7.38712824242424 -0.10432650125012 -2.08850306100610
 6 -7.57243475067507 -1.42501420502050 -2.71605412801280
 6 -6.66904645344534 -2.16606617841784 -2.09284545024502
 6 -5.93025144054405 -1.36958052315232 -1.15178130853085
 6 -8.51866732453245 -1.64894502050205 -3.75229212541254
 6 -6.18994266136614 -3.58609419331933 -2.09005256035604
 8 -6.56589098459846 -4.51188888728873 -2.74253051815182
 6 -5.00389895199520 -3.65780383298330 -1.03022534233423
 6 -5.32025950335033 -4.60615605670567  0.08174184598460
 8 -5.77215298689869 -4.35161416951695  1.18944530793079
 8 -4.80310000820082 -5.88222941934193 -0.29866301090109
 6 -5.18810637483748 -6.93985583888389  0.62708453825383
 6  2.29846081928193 -5.12286340654065  0.75788974337434
 6  3.36038057305731 -4.21695185608561  1.03957185698570
 6  3.94209359955996 -3.21058392849285  0.15195883088309
 6  3.45771010991099 -2.97492243354335 -1.30034953945395
 6  5.09194562036204 -2.34674972257226  0.65286908570857
 6  6.45982085338534 -2.68555148034803  0.10310177757776
 6  7.59904522812281 -1.81258061356136  0.68326401690169
 6  8.95094591589159 -1.96047088068807  0.03823604110411
 6  9.49054543624363 -3.49200984138414  0.23101964426443
 6  9.99921050015002 -0.92142237963796  0.60494300980098
 6  11.28955625802580 -0.82139174607461 -0.09362812901290
 6  12.22128981758176  0.25419004650465  0.22452930053005
 6  13.51854431023102  0.47338220812081 -0.66182094529453
 6  14.49167746674667 -0.73424282688269 -0.32725687658766
 6  14.19782572217222  1.75380155175518 -0.28362761756176
 6  15.48558274867487  2.11211924012401 -1.11920691569157
 6  16.03962654705471  3.51557631043104 -0.72001261446145
 6  17.32188743784378  4.00825866746675 -1.49368330353035
 6  17.30297288698870  3.97059195089509 -2.92505472967297
 6  17.86758616471647  5.15819108440844 -0.88159761866187
 1 -2.77616333913391  1.06214048944894  3.63435390379038
 1 -6.42531050985099  5.65486086648665  0.78133712541254
 1 -8.65802620982098  1.21473177607761 -3.20131561036104
 1 -3.64044510931093 -3.26342165756576  1.72393045384538
 1 -2.04499162306231 -1.10812847444744  2.59069034513451
 1 -3.17587736683668 -2.89066222742274  3.74448799279928
 1 -3.38976976967697 -1.38234813921392  4.80672270207021
 1 -4.78796130783078 -2.14636371727173  3.40040399089909
 1 -2.28897421112111 -3.32956247354735 -0.08369899369937
 1 -1.54431226362636 -1.73497261356136  0.09955807740774
 1 -0.50184561806181 -3.17350864646465  2.52317653635364
 1 -1.32934765636564 -4.44232136333633  1.77209900790079
 1 -1.95058517231723  3.05859538393839  4.17937384708471
 1 -2.60521151125113  4.89537674367437  4.51413767146715
 1 -3.30845384038404  3.29049004650465  5.38003300930093
 1 -5.40649371327133  6.64918911331133  2.41708703010301
 1 -9.92587172067207  2.78372903000300 -3.19494274597460
 1 -10.11642244014402  4.72197604170417 -2.98238852955296
 1 -9.39011881168117  4.53924233823382 -5.28447364966497
 1 -7.85432494189419  4.97953769916992 -4.48464841984198
 1 -8.09137898689869  3.45678503730373 -4.87768769356936
 1 -8.30417800740074 -0.88630917381738 -4.65751674997500
 1 -8.30252123512351 -2.63674707980798 -4.16441907890789
 1 -9.68457853735374 -1.60062688608861 -3.61642854955496
 1 -4.00758811621162 -4.05552037863786 -1.39765305220522
 1  2.29993112611261 -6.12971091409141  1.10857681458146
 1  2.28550929432943 -5.11090806690669 -0.34195764536454
 1  3.71479360166017 -4.15621490329033  2.05867087468747
 1  2.44471945864586 -3.16999262036204 -1.61579412041204
 1  3.59905451875187 -1.96767032633263 -1.43091556205621
 1  4.18724089808981 -3.61035476467647 -1.79107803370337
 1  4.60622066296630 -1.37000342434243  0.34147603110311
 1  5.10974950225023 -2.25767740014001  1.66720160046005
 1  6.62073960066007 -3.74394758685869  0.32745062906291
 1  6.41270143054305 -2.69099670867087 -1.11086168166817
 1  7.20790972227223 -0.79502282738274  0.76499374487449
 1  7.70390249314931 -2.12212879597960  1.62565695099510
 1  8.90067417671767 -1.80337861306131 -1.04699803790379
 1  8.72438695739574 -4.17970674207421 -0.10348414081408
 1  10.39979932073207 -3.53572777487749 -0.33953406690669
 1  9.70055911731173 -3.55480657215722  1.41296173887389
 1  9.77400655125513  0.20358608480848  0.30663602740274
 1  10.21389148664866 -0.91995852975298  1.77577711771177
 1  11.85900104140414 -1.79239927182718  0.10225585238524
 1  11.01023711041104 -0.76164906980698 -1.29500083368337
 1  11.75389642314232  1.37277170637064  0.30568101290129
 1  12.75756057935794  0.08235942734273  1.24163244344434
 1  13.09185598629863  0.37057148944894 -1.75816805550555
 1  14.68064740304030 -0.56636484918492  0.82466814681468
 1  13.99276484748475 -1.69508852515252 -0.41258758025803
 1  15.47764875327533 -0.48978217641764 -0.88344523702370
 1  13.43211140534054  2.65212983208321 -0.31262305000500
 1  14.44896159645965  1.79738002720272  0.79667688158816
 1  16.16022767856786  1.26518513121312 -0.91234772547255
 1  15.23297888128813  2.11808572137214 -2.21248262796280
 1  15.11578298289829  4.33534891289129 -0.79138113621362
 1  16.33146591669167  3.23986062746275  0.32602250265026
 1  17.96997067846785  2.98992048324833 -1.37111619121912
 1  16.66345706610661  4.62284881378138 -3.37523988378838
 1  18.44150007350735  4.09203871717172 -3.15161976707671
 1  17.02676287648765  2.99526059605961 -3.40929896449645
 1  17.92054810201020  4.99190040754075  0.25951761596160
 1  18.90497802010201  5.34249840204020 -1.29177609200920
 1  17.21700325122512  6.06775627872787 -0.79579364066407
 1 -5.07384268566857 -8.01374080718072 -0.04514805250525
 1 -6.13750818111811 -6.98205529212921  1.03749725722572
 1 -4.39514768336834 -6.86759833543354  1.59867432403240
 8 -7.76701429302930  6.80472697349735 -0.41359914391439
 1 -9.02090038713872  6.28927457235724 -1.90159584238424

