%nproc=4
%Mem=4GB
# td=(NStates=1) iop(3/107=0140000000,3/108=0140000000) iop(3/107=0140000000,3/108=0140000000) CAM-B3LYP/6-31G(d,p) 

TD

0 1
12 -5.64286579317932  1.18299317361736  0.29941854705471
 6 -5.12316270347035 -2.10691915521552 -0.30540740754075
 6 -3.31054984408441  1.23995428022802  2.81525689898990
 6 -6.21816061176118  4.61715497969797  0.76316652545255
 6 -7.95868163526353  1.23012386308631 -2.43798147164716
 7 -4.33324757805781 -0.26052424422442  1.05912725152515
 6 -4.26073960146015 -1.57778147974797  0.68193054265427
 6 -3.23756688118812 -2.35775907870787  1.52833719741974
 6 -2.77088025902590 -1.33691658255826  2.65411196729673
 6 -3.54267169456946 -0.07736036373637  2.14587917311731
 6 -3.40139317871787 -1.74168761016102  4.01849454885489
 6 -2.06639183238324 -2.74344175347535  0.64183948944894
 6 -1.12882452595260 -3.64665224582458  1.43608719671967
 6  0.19245434593459 -3.98708254895490  0.62327052175218
 8  0.46805686998700 -3.56906422002200 -0.51969820402040
 8  1.04483132883288 -4.78938855615562  1.37468207550755
 7 -4.96904772107211  2.58974835173517  1.57535776747675
 6 -3.93350544034403  2.43464088578858  2.51007161046105
 6 -3.65774527822782  3.69052755495550  3.03244380058006
 6 -4.45911646434643  4.67586911521152  2.48551782308231
 6 -5.36415251945194  3.95738383358336  1.51153724602460
 6 -2.68224358745875  3.83624099989999  4.15582977237724
 6 -4.59890642124212  5.99888730923092  2.94051355615562
 8 -3.77645769376938  6.53803169116912  3.68730263016302
 7 -6.86762056195620  2.55597549334934 -0.63026468276828
 6 -6.92786550135014  3.89908952615262 -0.44157584628463
 6 -7.85898108450845  4.55723244804480 -1.27465157465747
 6 -8.45503495679568  3.63636056595660 -2.08942788718872
 6 -7.71936082658266  2.39062507130713 -1.71436738323832
 6 -8.16894988588859  6.02402231163116 -1.28484799359936
 6 -9.37307167046705  3.83096349454945 -3.18097273007301
 6 -8.73691514521452  4.26891503770377 -4.47689409340934
 7 -6.30713913291329 -0.13026804450445 -1.16328142014201
 6 -7.29879940954095  0.02663659505951 -2.17981219191919
 6 -7.58622612981298 -1.28163986758676 -2.65263778637864
 6 -6.73399294809481 -2.19580915271527 -2.09564573027303
 6 -6.01868028342834 -1.42528609370937 -1.03176930733073
 6 -8.53137859565956 -1.64332445844584 -3.81691858805881
 6 -6.25116878397840 -3.55989157305731 -1.93101665676568
 8 -6.50027442294229 -4.45983368176818 -2.67967423252325
 6 -5.05019358145815 -3.56651470407041 -0.81476379617962
 6 -5.33623110051005 -4.57780322142214  0.20393406520652
 8 -5.82209798139814 -4.48151715981598  1.33168953235324
 8 -5.12922262046205 -5.86125732213221 -0.35727887248725
 6 -5.52473003720372 -7.01087294059406  0.42477430723072
 6  2.29264023722372 -5.20776189638964  0.66925087948795
 6  3.35298983398340 -4.21977213811381  0.93886178597860
 6  4.03447283748375 -3.35504837493749  0.15334896989699
 6  3.68611295019502 -3.24898984028403 -1.33995349984999
 6  5.16406283208321 -2.47283233083308  0.62318611741174
 6  6.59043391469147 -2.74124704990499 -0.07649618221822
 6  7.63663898749875 -1.81698105360536  0.47565325582558
 6  9.00301112241224 -1.96943177677768 -0.09026680918092
 6  9.59263564526453 -3.32262290269027  0.14884142644264
 6  10.01704228332833 -0.83888412581258  0.37820033553355
 6  11.30290759315932 -0.79111871877188 -0.25823458965897
 6  12.26006369496950  0.29922454995500  0.18609545714571
 6  13.53685614141414  0.46054092399240 -0.56522128532853
 6  14.52032033103310 -0.71098050065007 -0.53348749964997
 6  14.17462340194019  1.82360853245325 -0.17836709150915
 6  15.49402359275927  2.12211023922392 -0.84428942394239
 6  15.94808739313931  3.62865761856186 -0.51382199539954
 6  17.33079832893289  4.00651849344935 -1.25668960416042
 6  17.02508509820982  4.17394228592859 -2.81148337253725
 6  17.86318572467247  5.28742400770077 -0.68163762266227
 1 -2.68544426722672  1.31618589398940  3.62075254365437
 1 -6.59341732053205  5.61785716611661  0.98633762546255
 1 -8.73231363856386  1.34374467736774 -3.25190066886689
 1 -3.73207427222722 -3.25932124752475  2.04825288608861
 1 -1.69347647154715 -1.14339200080008  2.74658593469347
 1 -2.85475525462546 -2.73317647884789  4.37315085908591
 1 -3.27769856255626 -1.01080098449845  4.75523755355536
 1 -4.43802631433143 -1.88003708460846  4.00417436793679
 1 -2.25736104980498 -3.29957947524752 -0.31799242304230
 1 -1.51249908230823 -1.88311742804280  0.15917403900390
 1 -0.87415284878488 -3.29380067566757  2.37393161186119
 1 -1.51037575917592 -4.66053318451845  1.80539233723372
 1 -1.67078719251925  3.69840936533653  3.84060997069707
 1 -2.69169015911591  4.89557676367637  4.81286754445445
 1 -2.67154014901490  3.16477747524752  5.02197720372037
 1 -5.40538360226023  6.78511270567057  2.60438575997600
 1 -9.72752188568857  2.71836249334933 -3.27356060776078
 1 -10.30253105100510  4.42193603770377 -2.88821911261126
 1 -9.39302910271027  4.42199061306131 -5.34707991029103
 1 -7.96686619601960  4.97982772817282 -4.38429838483848
 1 -8.25190503950395  3.39942930173017 -4.91441136593659
 1 -8.56479406900690 -0.61236177907791 -4.37139813811381
 1 -8.20153113611361 -2.63602700780078 -4.35156779377938
 1 -9.67960804030403 -1.84500132353235 -3.31794870157016
 1 -4.21447880528053 -3.93586841344134 -1.59617290419042
 1  2.39167030003000 -6.09551749474947  0.98667462436244
 1  2.16126687008701 -5.38772574867487 -0.34033748334833
 1  3.56651877417742 -4.11698097989799  1.98144315191519
 1  2.79024401110111 -3.53082870397040 -1.49563210421042
 1  3.85057967126713 -2.26905046434643 -1.57483995449545
 1  4.47799997399740 -3.81121485068507 -2.06099502540254
 1  5.04297433833383 -1.39812623662366  0.48063994749475
 1  5.42343087038704 -2.76066769916992  1.76017089738974
 1  6.94827235393539 -3.96999019111911 -0.04787690369037
 1  6.45827598799880 -2.53287089608961 -1.20325092059206
 1  7.22269120042004 -0.69262258735874  0.06543378887889
 1  7.78671077397740 -1.92310889398940  1.53931831713171
 1  9.01505561486149 -1.96272454765476 -1.22830616871687
 1  9.14709922862286 -4.14359313071307 -0.59659345174517
 1  10.57157649844985 -3.54290849294929 -0.08692880638064
 1  9.57070613201320 -3.82754384588459  1.26633707640764
 1  9.50340949154915  0.10448617481748  0.07788315211521
 1  9.98327842534253 -1.12944947884789  1.55852539253925
 1  11.74968010931093 -1.81309134103410 -0.25275964916492
 1  11.16395248194820 -0.44090699559956 -1.43926526012601
 1  11.55916695019502  1.19604403360336  0.08718916371637
 1  12.42218704200420  0.08590978237824  1.23287156735674
 1  13.28484528522852  0.58627305960596 -1.63277551625163
 1  14.65240457875787 -0.97908612131213  0.60505618561856
 1  14.12151772277228 -1.71628064436444 -0.93468979047905
 1  15.37375836423642 -0.72910610881088 -1.21279817231723
 1  13.45881407560756  2.59815443454345 -0.12078386608661
 1  14.48032473277328  1.64165445464546  0.85685289918992
 1  16.39079073487349  1.60463907660766 -0.61818830953095
 1  15.36369195259526  1.96795070787079 -1.90271165086509
 1  15.21015241984198  4.33316869486949 -0.88597059515952
 1  16.15159792989299  3.70054669606961  0.50833073347335
 1  18.07980166156616  3.14004549574957 -1.16869594919492
 1  16.14279499989999  4.82332886178618 -2.91866422622262
 1  18.02446837033704  4.67895740904090 -3.39561416651665
 1  16.71821202140214  3.40420149014901 -3.49588762336234
 1  18.02209825702570  5.47745896339634  0.43982564676468
 1  18.92660018231823  5.46517066926693 -1.25407232163216
 1  17.15017656855686  6.11227073017302 -1.27176123742374
 1 -5.24349965136514 -7.88940837393739 -0.16020955865587
 1 -6.55848027832783 -6.90288737533753  0.52069557705771
 1 -5.02839100770077 -7.09249082468247  1.29780423702370
 8 -7.84441203280328  6.86851335213521 -0.50173795779578
 1 -8.91610990809081  6.24461010591059 -2.29029471227123

