%nproc=4
%Mem=4GB
# td=(NStates=1) iop(3/107=0140000000,3/108=0140000000) iop(3/107=0140000000,3/108=0140000000) CAM-B3LYP/6-31G(d,p) 

TD

0 1
12 -5.64704621122112  1.23767864216422  0.22634123932393
 6 -4.96680706790679 -2.11992045534553 -0.30822768956896
 6 -3.38329711881188  1.19503978877888  2.68935430873087
 6 -6.25877467316732  4.54283754795480  0.56102631143114
 6 -7.86262202930293  1.14903575427543 -2.51445911941194
 7 -4.39760401370137 -0.27831602340234  0.99165050385039
 6 -4.25623915141514 -1.53083678527853  0.65527787738774
 6 -3.19027215171517 -2.21348465126513  1.42959732343234
 6 -2.93857702870287 -1.25735862676268  2.66337289338934
 6 -3.59934736213621 -0.00201282898290  2.08678326352635
 6 -3.46256929632963 -1.66147958935894  4.00573327272727
 6 -1.91097629082908 -2.53628103740374  0.54235954145415
 6 -0.90172181568157 -3.41650923152315  1.37926151415142
 6  0.26092119261926 -3.86877071777178  0.56470466516652
 8  0.50574063836384 -3.42009932353235 -0.53657989218922
 8  1.06865371107111 -4.70270988828883  1.24983959125913
 7 -4.99897071337134  2.64500387728773  1.55707593929393
 6 -4.03282537233723  2.45481290299030  2.46302690599060
 6 -3.81931143484348  3.66480498269827  3.18813937013701
 6 -4.60995154785479  4.65824735303530  2.54508377967797
 6 -5.36163226742674  3.96185428062806  1.50632672497250
 6 -2.92948831193119  3.77519489528953  4.36723091249125
 6 -4.70332686328633  6.02348976947695  2.91215071987199
 8 -4.15887593559356  6.55360324832483  3.90353425332533
 7 -6.90566436633663  2.60784067986799 -0.69482113841384
 6 -7.07369008380838  3.98318793599360 -0.38016970567057
 6 -8.04191937833783  4.64286101090109 -1.23802791229123
 6 -8.50194964826483  3.63147007690769 -2.04666361076108
 6 -7.78684757525753  2.43626963576358 -1.75976192269227
 6 -8.39628261916192  6.00915082448245 -1.18633814261426
 6 -9.54721908520852  3.74549494769477 -3.23973860666067
 6 -8.92220367406741  4.39373751995200 -4.48789519351935
 7 -6.40754917391739 -0.21222624032403 -1.04531962396240
 6 -7.24365389498950 -0.02126819541954 -2.18795300600060
 6 -7.56869437663766 -1.32044374797480 -2.79165168776878
 6 -6.68786833563356 -2.27286685848585 -2.03694986068607
 6 -5.99894831023102 -1.46242980808081 -0.97795392579258
 6 -8.42726818461846 -1.66721684768477 -3.88352524872487
 6 -6.19087275437544 -3.55138072197220 -1.97858141324132
 8 -6.61078547404740 -4.62833053145315 -2.46438270337034
 6 -4.97965652775278 -3.54745279787979 -0.81358367816782
 6 -5.37645512291229 -4.71176661776178  0.19192286408641
 8 -5.87140291189119 -4.44739374747475  1.30688705210521
 8 -4.94478417661766 -5.91772296869687 -0.30567371197120
 6 -5.11510907510751 -7.11257311061106  0.49195102490249
 6  2.33513448664866 -5.01907302750275  0.57020097449745
 6  3.37597213221322 -4.03370353125313  0.89873777357736
 6  4.04357374757476 -3.25197806790679  0.12609624462446
 6  3.66224056295630 -3.13909885118512 -1.32417192169217
 6  5.23314974077408 -2.37766281388139  0.54169796859686
 6  6.68120299159916 -2.63309623482348 -0.01340987358736
 6  7.73405872947295 -1.83239259475948  0.51960765126513
 6  9.03924474577458 -2.02198703230323 -0.07593537603760
 6  9.56467284898490 -3.48757939833983  0.07444398669867
 6  10.11428200730073 -1.02578281568157  0.45167768326833
 6  11.48718602100210 -0.98165777267727 -0.32134090029003
 6  12.31630931953195  0.13967859535954  0.33760060766077
 6  13.61545400120012  0.40224509440944 -0.57244200740074
 6  14.67217551655166 -0.81327072967297 -0.37437158805881
 6  14.36028196779678  1.64467063866387 -0.02671192599260
 6  15.47177136753675  2.04021204940494 -0.90178517351735
 6  16.08357094149415  3.40864561736174 -0.61297191039104
 6  17.37660290939094  3.95854369596960 -1.35326926212621
 6  17.09442203190319  4.07283217491749 -2.92212443664366
 6  17.93470287638764  5.33768903420342 -0.81208066696670
 1 -2.75808153095310  1.35802007740774  3.53137360576058
 1 -6.44311229002900  5.64289967036704  0.90270926262626
 1 -8.70957136433643  1.11535183808381 -3.19132461126113
 1 -3.56768783358336 -3.10517583298330  1.93487154795480
 1 -1.75963308720872 -1.15969363096310  2.82179345544554
 1 -3.14408418751875 -2.72211537273727  4.18788233223322
 1 -3.32831362406241 -0.96786669106911  4.69235126492649
 1 -4.62705521722172 -1.76680576147615  4.10609455995600
 1 -2.29393470717072 -2.94658417571757 -0.37443806760676
 1 -1.54058189058906 -1.48987810411041  0.40121824342434
 1 -0.56379181268127 -2.83126442204220  2.25821003970397
 1 -1.40747546914692 -4.32060919211921  1.68407020502050
 1 -2.02923303710371  3.43749327372737  4.00228613831383
 1 -2.85669665976598  4.83394060006001  4.63174943264326
 1 -3.22201519651965  3.01395239273927  5.06741174717472
 1 -5.35120818471847  6.67406160056006  2.19913523492349
 1 -9.93164229772977  2.88098875597560 -3.23340659235924
 1 -10.35200599849985  4.41785562966297 -2.59726001670167
 1 -9.71701150095010  4.46430484448445 -5.13680888318832
 1 -8.46310581998200  5.41576132153215 -4.16238619361936
 1 -8.29114896389639  3.52447180598060 -4.73877380218022
 1 -8.05120270987099 -1.08902944584458 -4.69640063836384
 1 -8.33235421842184 -2.77868127322732 -4.13305594259426
 1 -9.56751683118312 -1.38221504490449 -3.59289619631963
 1 -4.06138349574957 -3.62469729632963 -1.24160744764476
 1  2.68649978297830 -5.96089403240324  1.26746270317032
 1  2.19450019341934 -5.20837781388139 -0.48213166276628
 1  3.56563868616862 -4.19822910471047  2.00516552415242
 1  2.47026201290129 -3.63968959005901 -1.50694323532353
 1  3.84553916721672 -2.11056461576158 -1.85683815431543
 1  4.25174734873487 -3.78120184938494 -1.92425135103510
 1  4.88627866876688 -1.26678310231023  0.13234511801180
 1  5.19837836513651 -2.49326095849585  1.85851073137314
 1  6.80392791949195 -3.79896308840884  0.14981286528653
 1  6.68830899129913 -2.45359296829683 -0.98727932343234
 1  7.47117604890489 -0.78184150925092  0.43540078557856
 1  7.80005210811081 -2.12372895599560  1.60298468376838
 1  8.98051216051605 -2.00350862606261 -1.20764410251025
 1  8.71497601630163 -4.34642341374137 -0.40981477387739
 1  10.42078141894189 -3.65802000410041 -0.43572368586859
 1  9.55987504890489 -3.81388247974797  1.11214165686569
 1  9.91891104170417  0.00025575177518  0.49318468226823
 1  10.14562465996600 -1.14620115401540  1.64238377837784
 1  12.11993713501350 -1.87571760366037 -0.12885725892589
 1  11.15729181588159 -0.68442134703470 -1.40127146074607
 1  11.82308334183418  1.06555098429843  0.37835828062806
 1  12.67671249454945 -0.18796760536054  1.37574585478548
 1  13.47335413611361  0.54015844814481 -1.61872411111111
 1  14.90182952125212 -0.94430264296430  0.67398307830783
 1  14.34780035103510 -1.83861287758776 -0.78149447094710
 1  15.50321130953095 -0.82775597379738 -1.16464335683568
 1  13.56991518571857  2.54234885398540 -0.04556634433443
 1  14.68719541984198  1.59781007020702  0.92966017991799
 1  16.37215887168717  1.28230684338434 -0.69032552325233
 1  15.23786937033703  1.82378629142914 -1.91041242094209
 1  15.15677708230823  4.16423180118012 -0.53586558465847
 1  16.34325709580958  3.48584522592259  0.36323622402240
 1  18.21592527392739  3.08695018621862 -1.14304338393839
 1  16.46782750315031  4.83397992689269 -3.11811417121712
 1  18.05075099859986  4.27485699899990 -3.37822242734273
 1  16.64287448764876  2.95539660966097 -3.31271930653065
 1  18.22524857205720  5.05595681318132  0.27953961816182
 1  18.79054657695769  5.58612276447645 -1.28790570497050
 1  16.87695924682468  5.96544604770477 -0.76401046234623
 1 -4.65170047144715 -7.97763719681968  0.02957942024202
 1 -6.15139957025703 -7.27392447904790  0.89408291579158
 1 -4.49863803240324 -7.06922849844985  1.44625908250825
 8 -7.96798439003900  6.87445394619462 -0.36941472547255
 1 -9.12623092019202  6.32151779667967 -2.05463114591459

