%nproc=4
%Mem=2GB
# td=(NStates=1) iop(3/107=0140000000,3/108=0140000000) iop(3/107=0140000000,3/108=0140000000) CAM-B3LYP/6-31G(d,p) 

TD

0 1
12 -6.81797436953695  0.53192233633363  0.25540315981598
 6 -4.62001910841084 -2.05489391119112  0.58432870987099
 6 -4.27271908730873  2.84155578867887  1.07838071967197
 6 -8.86826953165317  3.00458448254825 -0.43790329202920
 6 -9.28985708330833 -1.72995602520252 -0.69852991169117
 7 -4.82623769566957  0.42547194489449  0.77540657275728
 6 -4.02096936253625 -0.73016272307231  0.70581113651365
 6 -2.49509292789279 -0.40045180438044  0.97287935023502
 6 -2.57704767056706  1.04893504230423  1.19481164366437
 6 -3.96596285918592  1.44776486168617  0.89587436213621
 6 -2.13325961166117  1.39288108400840  2.68848341114111
 6 -1.58728747714771 -0.81119368276828 -0.14931360506051
 6 -0.03117123542354 -1.08650035663566  0.27890696419642
 6  0.90001108030803 -1.26894413131313 -0.96629480328033
 8  0.71594166226623 -1.03039565206521 -2.08981997219722
 8  1.74915520212021 -2.14254455305531 -0.46714163666367
 7 -6.62488423062306  2.54024439443944  0.39995374327433
 6 -5.52228278917892  3.09468811201120  0.84739103530353
 6 -5.99945416061606  4.67378706350635  0.72390725932593
 6 -7.17626834023402  4.73035912641264  0.44340092339234
 6 -7.64673637753775  3.34692350075008  0.06085091649165
 6 -5.13301822212221  5.74373180368037  1.19173684168417
 6 -7.82876443774377  6.00643756385639  0.16905642934293
 8 -7.37393130933093  7.10829244584458  0.58580643744374
 7 -8.67043059655966  0.66124698389839 -0.29756240534053
 6 -9.34339801220122  1.73753848914891 -0.47652870517052
 6 -10.81409804010401  1.54757462856286 -0.91078685988599
 6 -10.95303966146615  0.14164506890689 -1.00743159865987
 6 -9.67842950625062 -0.38151631483148 -0.62017409410941
 6 -11.80163693899390  2.63979017211721 -1.31119577037704
 6 -12.23768688918892 -0.70725428772877 -1.21853998769877
 6 -12.56050291239124 -1.05481764696470 -2.66882967766777
 7 -7.06426290919092 -1.35645820712071  0.06840419591959
 6 -8.14351701330133 -2.27254725142514 -0.17569076707671
 6 -7.68470605570557 -3.73940126252625 -0.45056606670667
 6 -6.26117173837384 -3.57201636253625 -0.14698295889589
 6 -5.88549483818382 -2.04646346084608  0.11612779707971
 6 -8.44382290579058 -4.86897427522752 -0.79377219311931
 6 -4.92210841534153 -4.28627442554255  0.10345837153715
 8 -4.85044679337934 -5.41038157645765 -0.07539703310331
 6 -3.78744246964696 -3.25329588878888  0.46497114431443
 6 -3.42291580248025 -3.76741291679168  1.98368808180818
 8 -3.85564080418042 -4.24271100590059  2.94084275407541
 8 -2.10064173907391 -3.33036934223422  1.91651159035904
 6 -1.34349287138714 -3.94060915101510  2.99835426062606
 6  2.95534742754275 -2.34625980288029 -1.24628587268727
 6  4.06639040644064 -1.08345534663466 -1.10408594089409
 6  4.99687044244424 -0.94827169856986 -2.07694389598960
 6  5.33631761556156 -1.80787392209221 -3.31189817201720
 6  6.16671049564957 -0.12586023892389 -1.79560611911191
 6  7.35760445444544 -0.76152193429343 -0.83098983628363
 6  8.50573313361336  0.37143277787779 -0.65618409890989
 6  9.75643873327333 -0.31092801310131  0.04814650895089
 6  9.31651916821682 -0.92104091879188  1.41343571237124
 6  10.91114344434443  0.82751760596060  0.09636447484748
 6  12.33198846934694  0.14086539373937  0.49644795599560
 6  13.38072961556156  1.10068734343434  0.36881978037804
 6  14.85419175437544  0.49418269636964  0.65457011911191
 6  15.11678666676668 -0.02297457795780  2.18496842084208
 6  16.04586421482148  1.50245514751475  0.30937414271427
 6  17.11264074217422  0.66962218661866 -0.33121999589959
 6  18.44899444684469  1.62393958515852 -0.18790893769377
 6  19.95276747784779  0.81710020482048 -0.39687977167717
 6  20.00362016331633  0.48083351365137 -1.97914370557056
 6  21.06553372227223  1.85384680268027 -0.03924902080208
 1 -3.58177881618162  3.60268151915192  1.34403380508051
 1 -9.53354733723372  4.05510459555956 -0.36596022992299
 1 -10.29859235083508 -2.36948734803480 -1.17051987788779
 1 -2.13179569636964 -0.78428604640464  2.10782083038304
 1 -1.60681001960196  1.30484096029603  0.41869832323232
 1 -1.02011339503950  0.98494680908091  3.42724343544354
 1 -1.92407058095810  2.45937451385138  2.77033315111511
 1 -3.09191152365236  0.94419230453045  3.47434330343034
 1 -1.73360238053805 -1.74103537653765 -0.63949173597360
 1 -1.53588875787579  0.19956848394839 -1.08577836863686
 1  0.39882788108811 -0.17821925522552  0.77715358055806
 1  0.04187046724672 -1.80996733053305  1.39681991409141
 1 -4.07570210061006  5.99539736763676  0.67972292999300
 1 -6.00367064766477  6.79606228212821  1.13646055215522
 1 -5.06124715291529  5.41661062206221  2.11554932723272
 1 -8.73822683678368  5.98475358455846 -0.17613398919892
 1 -12.33974352795279 -1.70180104760476 -0.53254768196820
 1 -13.17462367736774 -0.19923352355235 -0.50177781418142
 1 -13.37390521362136 -1.63902601800180 -2.78801591869187
 1 -12.70612757655766 -0.00095267376738 -3.03672584208421
 1 -11.96828365276528 -1.45026834383438 -3.12909951735174
 1 -8.70496968026803 -4.73567012261226 -1.81748397639764
 1 -7.94277949254926 -5.95840585318532 -0.45155480738074
 1 -9.43190047004701 -4.29205116631663 -0.11463685418542
 1 -2.85887546894689 -3.54123784868487 -0.04303261006101
 1  3.37032864826483 -3.48373564736474 -0.77745346244624
 1  2.66590087888789 -2.50033594859486 -2.26420665596560
 1  3.72808013571357  0.11966921852185 -0.32230862926293
 1  4.49204226122612 -1.63836730923092 -3.95306542154215
 1  6.24830840924092 -1.49461813721372 -3.80408163206321
 1  5.20418424582458 -3.01398401270127 -2.79190337413741
 1  6.36970739263926  0.27496283368337 -2.87069968716872
 1  5.45498060746075  0.76418196599660 -1.38921318471847
 1  7.02889406830683 -1.03043124022402  0.31580330193019
 1  7.79751514991499 -1.92121091139114 -1.14493396929693
 1  8.70741287268727  0.84711530633063 -1.35530831613161
 1  8.15191368946895  0.79975516371637 -0.09886417801780
 1  9.95542798989899 -1.04402184588459 -0.31152831043104
 1  8.36847909220922 -1.56631544724472  1.50460882168217
 1  10.04878094749475 -1.51667554875488  1.78734062546255
 1  9.14042725432543 -0.09737095949595  2.08810011511151
 1  10.90747438523852  0.91058381828183 -1.00185735733573
 1  10.72734248084808  1.56642551815182  0.71252513281328
 1  12.22066960916092 -0.41369380888089  1.33329701300130
 1  12.52448460246025 -0.83363158375838 -0.29912290979098
 1  13.31663653365337  1.73600314531453 -0.73780268486849
 1  13.30172221702170  1.84886913821382  1.15474126352635
 1  14.86518794459446 -0.38652616861686 -0.11732992419242
 1  14.81125102500250  0.79468986448645  2.74312708570857
 1  14.68075534903490 -0.90243791569157  2.18827632573257
 1  15.92721975507551 -0.34913849694969  2.50822730043004
 1  15.70437157205721  2.31180117351735 -0.57146712141214
 1  16.52705673827383  2.47582711821182  0.97686600980098
 1  17.20455177027703 -0.20773760316032  0.61939212591259
 1  17.01002852705270  0.31189935913591 -1.29289066646665
 1  18.60094510161016  2.42368891669167 -1.02168515681568
 1  18.45261525762576  2.12898680558056  0.58776544704470
 1  20.08976153735374  0.19924277047705 -0.06464311351135
 1  19.78557687568757  1.48449349894989 -2.56066819201920
 1  20.86721101110111 -0.04546634843484 -2.44652878627863
 1  19.14349707670767 -0.10738845724572 -2.01871994669467
 1  21.02490926952695  2.18927850695069  0.97773852745275
 1  22.00700844114412  1.46563314601460 -0.12889560456046
 1  21.20454710761076  2.79822730993099 -0.76316111241124
 1 -0.31364698979898 -3.66483923332333  2.84189253725373
 1 -1.67540722172217 -5.08659593329333  3.11141177777778
 1 -1.73750776407641 -3.17580605770577  4.06172032523252
 8 -11.35949432373237  3.81181598079808 -1.44875668936894
 1 -12.86870738223822  1.78927016711671 -1.62112271727173

