%nproc=4
%Mem=2GB
# td=(NStates=1) iop(3/107=0140000000,3/108=0140000000) iop(3/107=0140000000,3/108=0140000000) CAM-B3LYP/6-31G(d,p) 

TD

0 1
12 -6.66222879497950  0.63788293239324  0.18872649214921
 6 -4.44601170767077 -2.08678710051005  0.41747202420242
 6 -4.10383219861986  2.83914554765477  0.79205208680868
 6 -8.84071677637764  3.22329635373537 -0.28452795449545
 6 -9.38613671127113 -1.66627965756576 -0.55166522522252
 7 -4.57386245814581  0.47064646234623  0.41947097919792
 6 -3.90433769936994 -0.73551325812581  0.40014056945695
 6 -2.54394781338134 -0.58753051225123  0.74584664696470
 6 -2.44078404420442  1.02741289008901  0.90560272277228
 6 -3.73332959585959  1.58741882708271  0.63907868256826
 6 -1.82292857855786  1.32173396929693  2.44975953875388
 6 -1.60792954135414 -1.16251881528153 -0.37214588828883
 6 -0.14826294459446 -1.36355806240624  0.26493556705671
 6  0.73172425162516 -1.59579681658166 -0.78777695149515
 8  0.70037010511051 -1.19389200170017 -1.90442143234323
 8  1.82928321492149 -2.44242454105411 -0.41129605210521
 7 -6.37390913311331  2.73761413141314  0.32358610651065
 6 -5.45508606950695  3.36023466666667  0.64026032223222
 6 -5.80156437163716  4.86334601940194  0.63839870847085
 6 -7.12353306670667  4.89386547704771  0.22940952425243
 6 -7.56017772167217  3.56445525392539  0.11133596499650
 6 -4.81951687198720  5.99261669216922  0.90802847084708
 6 -7.91483304460446  6.25988290839084  0.48139766346635
 8 -7.52887680388039  7.32076369296930  0.91982983978398
 7 -8.66223977747775  0.72929378857886 -0.64550719981998
 6 -9.34201787418742  1.89631436673667 -0.54676572887289
 6 -10.76801343164316  1.64212408350835 -0.64047982918292
 6 -11.05914027152715  0.25164606900690 -0.82765362086209
 6 -9.70254191749175 -0.24722288548855 -0.60852292899290
 6 -11.77473424872487  2.65360155325533 -0.99638428922892
 6 -12.13465658615861 -0.49990355265527 -1.25601373507351
 6 -12.07564442654265 -0.85875804100410 -2.67225001970197
 7 -6.84091057395740 -1.31269383068307 -0.18576122062206
 6 -8.11629429102910 -2.12854285098510 -0.43301649964997
 6 -7.51623920902090 -3.59288661106111 -0.34875588568857
 6 -6.23117873907391 -3.51287044794479 -0.15662392299230
 6 -5.81998828752875 -2.18990780528053  0.10588677297730
 6 -8.42020054355435 -4.78916629442944 -0.57049986588659
 6 -5.10102630713071 -4.43794959305931  0.24255228092809
 8 -4.93677542624262 -5.61040157845785  0.05082558915892
 6 -4.04809853525353 -3.33729428862886  0.48190283748375
 6 -3.31390490139014 -3.48643481898190  1.89818953195320
 8 -3.73861910201020 -3.94407114191419  2.98292696249625
 8 -2.01701337623762 -3.48096440174017  1.79712965216522
 6 -1.24925344744474 -3.99378446854685  2.91207563276328
 6  2.86293818661866 -2.54289946684669 -1.36114735883588
 6  3.95646941434143 -1.73332033313331 -1.05242077437744
 6  5.16342709810981 -1.48024489588959 -1.79688589018902
 6  5.41435541934193 -2.08184131883188 -3.10192717491749
 6  6.10303412801280 -0.40224787768777 -1.34662122062206
 6  7.18284697869787 -1.04535031713171 -0.61462820012001
 6  8.45823838413841 -0.00435480088009 -0.50525900640064
 6  9.53131622102210 -0.63730065036504  0.20597229152915
 6  9.37264478077808 -1.15023383808381  1.78770313911391
 6  10.87504983498350  0.37122197639764  0.23335817421742
 6  12.27369263976398 -0.05327402020202  0.27234554575458
 6  13.46296783938394  0.81349862456246  0.64959785818582
 6  14.79115545074507  0.38466174427443  0.49455411751175
 6  14.96438142624262 -0.56524880538054  1.57641756575658
 6  15.85030465886589  1.45634053605361  0.33146635193519
 6  17.13796327442744  0.90088531293129 -0.04991186508651
 6  18.09481902930293  2.01365855705571 -0.30770091689169
 6  19.42598479957996  1.61163965876588 -0.49961004470447
 6  19.57261706300630  1.14583001330133 -1.91611740294029
 6  20.48253542244225  2.70459187718772 -0.17392248814882
 1 -3.26431707000700  3.50337158815882  1.01740114181418
 1 -9.70466444894489  4.17752683778378 -0.34137777167717
 1 -10.44818731033103 -2.36200659995999 -0.71605443134313
 1 -2.58531104790479 -0.92685030283028  1.76442649094910
 1 -1.83217255585559  1.67659813601360  0.09876633003300
 1 -0.71702308600860  0.71915022942294  2.44587529862986
 1 -1.56068424232423  2.55562413881388  2.12784890269027
 1 -2.64989732223222  0.91255914121412  3.06175204430443
 1 -1.87092611291129 -2.10488176117612 -0.85993378017802
 1 -1.47652282128213 -0.46898837173717 -1.00608039883988
 1 -0.05393739543954 -0.13268470177018  1.00411627682768
 1 -0.10169388918892 -1.63224955875588  1.25399563166317
 1 -4.12613714411441  6.22757058495850 -0.12005704800480
 1 -5.29907018761876  6.96869954585459  1.25959286538654
 1 -3.70658168636864  5.62672163316332  1.79967774007401
 1 -8.91276429052905  6.38703381258126  0.12612623682368
 1 -12.00017957155716 -1.41602246974697 -0.51726615381538
 1 -12.98377459245924  0.09981638143814 -1.39042667906791
 1 -13.12975079817982 -1.43576569196920 -2.74916203330333
 1 -12.28960592439244  0.04421184268427 -3.20771294079408
 1 -11.24296112051205 -1.29349266626663 -3.20300690809081
 1 -8.51405058835884 -5.24654120972097 -1.90604283228323
 1 -7.84614982958296 -5.75511552415242  0.30590093819382
 1 -9.29443672367237 -4.46924888608861  0.18693330283028
 1 -3.32712229362936 -3.78474219911991 -0.48018632543254
 1  3.29715133053305 -3.53579085288529 -1.44347006410641
 1  2.57484177297730 -2.51328724372437 -2.35536577187719
 1  3.89622695039504 -1.38713146154615 -0.17340373877388
 1  4.56696975397540 -1.58616208870887 -3.69135925092509
 1  6.42710628902890 -1.84951362676268 -3.25231645554555
 1  5.27770159755976 -3.07563017731773 -3.23924810861086
 1  6.48240866276628  0.11406674407441 -2.35480809800980
 1  6.15138024742474  0.66513206100610 -0.81340560396040
 1  6.98505968486849 -1.26360455755576  0.37064878647865
 1  7.87069246764676 -1.85545433573357 -1.35733520942094
 1  8.76970910231023  0.36182677747775 -1.82282506780678
 1  7.96340483858386  1.03422861106111  0.13774948334833
 1  9.86162860996100 -1.79806725042504 -0.08706586418642
 1  8.73486573087309 -2.14232304800480  1.61645000580058
 1  10.61198726812681 -1.37134101530153  2.29041093249325
 1  8.54322753435344 -0.42024324672467  2.62662396749675
 1  10.66586022382238  1.16264902480248 -0.61655882748275
 1  10.56040578717872  0.93053192879288  1.12944682498250
 1  12.16844438663866 -0.76577901740174  1.07998168146815
 1  12.57445959996000 -0.84834305490549 -0.37668066556656
 1  13.48058292829283  1.61730127512751 -0.22143104770477
 1  13.42533457825783  1.48902315361536  1.59753554295430
 1  14.56411783758376 -0.05112262826283 -0.20148834003400
 1  15.05836573647365  0.20071046654666  2.37826059905991
 1  14.23505077857786 -1.23699137103710  1.61485898399840
 1  16.04567160026003 -0.85183876697670  1.50649712741274
 1  15.52156329122912  1.98531852525253 -0.33874384908491
 1  16.20495452805281  2.10781031653165  1.23963228642864
 1  17.53178449354935  0.35489866046605  0.88439862656266
 1  17.06616414061406  0.13281145034503 -0.77014839223922
 1  17.47350235733574  2.57299384718472 -1.13375636393639
 1  18.10821081718172  2.58152205910591  0.52994966546655
 1  19.73491605280528  0.75840868706871  0.15765911671167
 1  19.38347666566657  2.09515456505651 -2.39720184538454
 1  20.81670596059606  0.57312551075108 -1.82106624002400
 1  18.86820954795480  0.27966024762476 -2.16410448514851
 1  20.32250902950295  3.23388296739674  0.69653040664066
 1  21.53566130643064  2.24339092179218 -0.40433314831483
 1  20.24399105200520  3.49658714591459 -1.01768656495650
 1 -0.44340996609661 -3.89884263366337  2.58935728372837
 1 -1.55128480948095 -4.87620489418942  3.57486812341234
 1 -1.45506952025203 -3.14970344744474  3.63983813701370
 8 -11.70452882718272  3.88583338253825 -0.83347516121612
 1 -12.71447195869587  2.15363660376037 -1.35710631563156

