%nproc=4
%Mem=4GB
# td=(NStates=1) iop(3/107=0140000000,3/108=0140000000) iop(3/107=0140000000,3/108=0140000000) CAM-B3LYP/6-31G(d,p) 

TD

0 1
12 -5.64600610721072  1.22907778207821  0.06881548674867
 6 -5.06377676487649 -2.14841330463046 -0.25295216201620
 6 -3.40085887498750  1.06993727852785  2.75893126642664
 6 -6.07900669636964  4.53168643284328  0.69916012481248
 6 -7.88552431953195  1.20458130883088 -2.38622629612961
 7 -4.30852510581058 -0.32116030783078  1.05036637543754
 6 -4.16353988148815 -1.62579628122812  0.68155050465046
 6 -3.28238136263626 -2.35548885168517  1.52760712441244
 6 -2.82578574957496 -1.36286917781778  2.62729928602860
 6 -3.56969439683968 -0.08761138883888  2.18769335453545
 6 -3.52931597099710 -1.68412185358536  3.88016071547155
 6 -2.09845503870387 -2.84758216751675  0.67632293779378
 6 -1.05033667716772 -3.64805238583858  1.58542213021302
 6  0.19972507300730 -4.00549439013901  0.71078927362736
 8  0.37104716901690 -3.59853716731673 -0.49289552375238
 8  1.03077992369237 -4.80127974527453  1.27392199949995
 7 -4.88002881918192  2.64513389028903  1.42498272997300
 6 -4.04646673647365  2.30131755345535  2.51186178947895
 6 -3.68847835153515  3.62373087528753  3.16084664086409
 6 -4.47071762446245  4.60552208050805  2.60826009730973
 6 -5.20572667686769  3.94902299749975  1.49653574587459
 6 -2.88158352145215  3.75530290609061  4.32005619501950
 6 -4.59207573817382  6.05901332183218  2.94398390319032
 8 -3.94924497249725  6.63532142014201  3.72624652455246
 7 -6.89787358725873  2.66471636743674 -0.61205286158616
 6 -6.93865658045805  3.99790940814081 -0.28423011171117
 6 -7.94214940134013  4.52659938473847 -1.19454356385639
 6 -8.48544799809981  3.58537546744674 -1.98075702010201
 6 -7.79617850835084  2.40547655645565 -1.76069201570157
 6 -8.19028201910191  5.97825773517352 -1.17274678347835
 6 -9.40717508080808  3.79455985418542 -3.14966959975998
 6 -8.77229868356836  3.97615576177618 -4.54799120312031
 7 -6.30986940594059 -0.12373739143914 -1.14893998599860
 6 -7.27209673927393  0.03340727212721 -2.09353356405641
 6 -7.57824533173317 -1.33540524412441 -2.81879440204020
 6 -6.62865241404140 -2.12901247304730 -2.12183834953495
 6 -5.88741715711571 -1.43324688978898 -1.18548467886789
 6 -8.59016447424742 -1.63452357835784 -3.91085798199820
 6 -6.23013668076808 -3.51173675757576 -1.92460601570157
 8 -6.64519891539154 -4.53655135353535 -2.54749101420142
 6 -5.10625918801880 -3.56263431603160 -0.87526984678468
 6 -5.27148462586259 -4.65559100020002  0.18655232703270
 8 -5.70956672827283 -4.41461046914691  1.37687405080508
 8 -5.10448014621462 -5.84757595399540 -0.39555269986999
 6 -5.33985154935494 -6.98901075437544  0.47240907070707
 6  2.32691366456646 -5.05792691289129  0.52298625302530
 6  3.38683321832183 -4.12121228212821  0.96644454425443
 6  3.99992938313831 -3.21040391049105  0.04635827082708
 6  3.65309964886489 -3.12627756905691 -1.39075858035804
 6  5.06516294209421 -2.40294534213421  0.54174797359736
 6  6.45063993529353 -2.52531545674567 -0.17756628922892
 6  7.55569089268927 -1.61494084958496  0.48055374587459
 6  8.93752457375738 -1.79965479907991 -0.04519230173017
 6  9.50914729642964 -3.27239788018802  0.24980152245225
 6  9.83488406750675 -0.68205844324432  0.31489400490049
 6  11.28845614801480 -0.68207781468147 -0.26249501570157
 6  12.21563925252525  0.48019264676468  0.17080392799280
 6  13.58196065186519  0.54285915581558 -0.62069683288329
 6  14.46970526952695 -0.68726812941294 -0.30083423432343
 6  14.33454939453945  1.76603277487749 -0.15242449724972
 6  15.59881407180718  2.06118414661466 -0.91397639263926
 6  16.22018460286029  3.42714746754675 -0.62611322452245
 6  17.46682193129313  3.80155799739974 -1.29920385558556
 6  17.17597018671867  3.90405529722972 -2.78461068526853
 6  18.09653906000600  5.13593885918592 -0.81042050095009
 1 -2.82597832063206  0.97401167656766  3.83463393179318
 1 -6.50790876967697  5.57947332773277  0.86295528722872
 1 -8.74637504470447  1.06893719661966 -3.05002048084808
 1 -3.86467753255326 -3.14566988238824  2.02654071487149
 1 -1.69553667756776 -1.30187784938494  2.74193546964696
 1 -2.93331311041104 -2.64714787598760  4.59518306230623
 1 -3.50541133383338 -0.92475237963796  4.59727175697570
 1 -4.67665017671767 -1.90642972387239  3.70648459895990
 1 -2.41875718941894 -3.72787230453045 -0.15691631543154
 1 -1.58611644404440 -2.15783489978998 -0.02888476687669
 1 -0.59568500200020 -2.97651894749475  2.48431264996500
 1 -1.62939766136614 -4.61538867006701  2.00380217821782
 1 -1.86816693049305  3.26670619501950  4.36231214091409
 1 -2.88083907400740  4.82578978497850  4.71036729442944
 1 -3.39753274827483  2.96189718721872  5.01681668766877
 1 -5.31701476537654  6.56780097449745  2.42996831823182
 1 -10.18399753325332  2.79143980108011 -3.16596984868487
 1 -10.04529532743274  4.71303514761476 -2.80194048474847
 1 -9.63481328112811  3.73877229122912 -5.46164136643664
 1 -8.33268277767777  4.87055680108011 -4.69978993399340
 1 -8.05021487048705  3.03073243204320 -4.75358528332833
 1 -8.46499408900890 -0.97238778167817 -4.71900289858986
 1 -8.39384036703670 -2.71036444154415 -4.02697533453345
 1 -9.70212029152915 -1.51827865126513 -3.48967587428743
 1 -4.21648900630063 -3.93305813241324 -1.45351863876388
 1  2.40559169216922 -5.96913485648565  0.84642059895990
 1  1.94326506990699 -5.16591356745675 -0.54545799539954
 1  3.61396351865187 -4.21249053085309  1.98351335893589
 1  2.67651263796380 -3.55025064616462 -1.73454599559956
 1  3.83297791109111 -2.13665722502250 -1.64390686118612
 1  4.55654782878288 -3.69048277747775 -1.92960188608861
 1  4.81207124802480 -1.32504892889289  0.36200808430843
 1  5.17933646094610 -2.31760339273927  1.53444832513251
 1  6.73083060976098 -3.59535272737274 -0.03891600760076
 1  6.35207536793679 -2.32168977797780 -1.28628922442244
 1  7.05801473277328 -0.69062238733873  0.27084432993299
 1  7.57602970587059 -1.45576215931593  1.61969635493549
 1  8.81291540084008 -1.79745802100210 -1.12847618571857
 1  8.90225474417442 -4.09537830923092 -0.14688848124812
 1  10.59670901170117 -3.43030723282328 -0.21242135563556
 1  9.69331839323933 -3.30300139163916  1.42242268496850
 1  9.37372652325233  0.27433315951595  0.36341170497050
 1  9.74090418791879 -0.57486402030203  1.44017355735574
 1  11.77736287758776 -1.68266829872987  0.14795042184218
 1  11.12257834453445 -0.84755766066607 -1.25858719231923
 1  11.61966299979998  1.43843827302730 -0.14384393959396
 1  12.18615343864386  0.50153134453445  1.13730201040104
 1  13.30637743844384  0.52463689598960 -1.61362360106011
 1  14.82698203650365 -0.77364557725773  0.66652233223322
 1  13.74125969696970 -1.55587460376038 -0.38733505500550
 1  15.24656564496450 -0.80922412061206 -1.08747564006401
 1  13.66728492269227  2.60538515761576  0.06587479977998
 1  14.74789148944895  1.44174446364636  0.88443565746575
 1  16.44357601340134  1.31018963166317 -0.77744423512351
 1  15.42398798219822  1.87065097789779 -1.97776915661566
 1  15.48518992359236  4.23715909390939 -0.74045604370437
 1  16.33721649174918  3.35302194359436  0.49574947534753
 1  18.19223290469047  3.07918941014101 -1.30675975557556
 1  16.51637235763576  4.99506603550355 -3.06283864366437
 1  18.28751467496750  4.29244875817582 -3.10934553965397
 1  16.87674787498750  2.91234230423042 -3.23532156675668
 1  18.26641268846885  4.98692991049105  0.25780744494449
 1  18.93784130643065  5.47714186638664 -1.33225013941394
 1  17.35492704360436  5.78493799689969 -0.88105216651665
 1 -5.13004830623062 -7.78660809390939 -0.22243578127813
 1 -6.43308773907391 -6.84031111771177  0.65466897439744
 1 -4.84677284588459 -6.99080065566557  1.42655711231123
 8 -7.77534512611261  6.85947244804480 -0.34844262826283
 1 -8.92467076417642  6.25108075297530 -1.91102678547855

