%nproc=4
%Mem=2GB
# td=(NStates=1) iop(3/107=0140000000,3/108=0140000000) iop(3/107=0140000000,3/108=0140000000) CAM-B3LYP/6-31G(d,p) 

TD

0 1
12 -6.82103467556756  0.66241538563856  0.15114273377338
 6 -4.45792289878988 -2.13687210901090  0.59099937693769
 6 -4.05944776017602  2.68390002310231  1.04369725132513
 6 -8.80869357405741  3.33373739783978 -0.23742324402440
 6 -9.29967806540654 -1.61720475007501 -0.68065812451245
 7 -4.68557362926293  0.34030342804280  0.77770680278028
 6 -4.00558782438244 -0.90011971877188  0.78766932233223
 6 -2.38958237683768 -0.82462422162216  1.12719478177818
 6 -2.37393735953595  0.69482963176318  1.36739890239024
 6 -3.74318058095810  1.35903598879888  0.92258703340334
 6 -1.85115140084008  1.11233302920292  2.90441500430043
 6 -1.52976172457246 -1.17647021042104 -0.05490416411641
 6 -0.22813093139314 -1.35057676427643  0.51254032753275
 6  0.84862594179418 -1.47165440234023 -0.68897707150715
 8  0.61911197929793 -1.10992360486049 -1.82224321452145
 8  1.86995728232823 -2.26539683828383 -0.27662258475848
 7 -6.37999974217422  2.64139450945095  0.25241898979898
 6 -5.37050761166117  3.28144678787879  0.59773606980698
 6 -5.56629084428443  4.60149983478348  0.67564243284328
 6 -6.79395010841084  4.95794188468847  0.31320790409041
 6 -7.50245194909491  3.55034384278428  0.10710554195420
 6 -4.57079199949995  5.66024345484548  0.96629429742974
 6 -7.47335889718972  6.16492341244124  0.06722624632463
 8 -6.96464038023802  7.33076469306931  0.14222207900790
 7 -8.68082163566357  0.88775963516352 -0.26546919601960
 6 -9.14052772517252  2.01195593089309 -0.47604865716572
 6 -10.58982561286129  1.75309518061806 -0.85609139033903
 6 -10.86762111961196  0.34810571497150 -0.99058991449145
 6 -9.57638930223022 -0.24111227442744 -0.54913699039904
 6 -11.72436921222122  2.73911010411041 -1.01117576837684
 6 -11.97505062556256 -0.47696125842584 -1.33426155985599
 6 -11.87848471057106 -0.82972513771377 -2.90359315401540
 7 -6.86458294119412 -1.35243780508051 -0.15882852735274
 6 -8.04744740634063 -2.14592458915892 -0.28207140514051
 6 -7.68836642174217 -3.64906222862286 -0.39106011611161
 6 -6.26902252345235 -3.59269843074307 -0.10201846244624
 6 -5.88303459215922 -2.23315212971297  0.15720190449045
 6 -8.60303882738274 -4.62334971277128 -0.65470828672867
 6 -5.21759796429643 -4.44729052715272  0.05376340204020
 8 -4.96889863856386 -5.58902944124412 -0.09227872127213
 6 -3.88429215461546 -3.51434199339934  0.47981262846285
 6 -3.36293980488049 -3.89294547004700  1.92276198919892
 8 -4.13123836393639 -4.11428816361636  2.82332100190019
 8 -1.89776145104510 -3.99231553685369  1.82550248944894
 6 -1.20144866696670 -4.22793788388839  3.10998542374237
 6  2.88293018581858 -2.47098227512751 -1.36170741484148
 6  4.10841460886089 -1.43898089918992 -1.06764229652965
 6  5.07089784518452 -1.15253212461246 -1.91154735633563
 6  5.14427841164116 -1.98418155285529 -3.32327931013101
 6  5.96360018461846 -0.12118977187719 -1.68660521902190
 6  7.18384707870787 -0.68673445554555 -0.93107984528453
 6  8.29319187948795  0.47610324492449 -0.75838431893189
 6  9.55965905530553 -0.37242416271627 -0.07234554025403
 6  9.18399591589159 -0.99344815951595  1.33046741554155
 6  10.67528985898590  0.57480233443344  0.13919875827583
 6  12.10983625412541  0.01327263446345  0.24400271147115
 6  13.09871141374137  1.17800507520752  0.25363826222622
 6  14.54563089828983  0.41657493559356  0.47925258735874
 6  14.70248523662366 -0.19858213871387  1.85929585358536
 6  15.55202483088309  1.50483538553855  0.17214041934193
 6  16.96270574867487  0.95895111951195  0.04896802290229
 6  18.07815736313632  2.02548974017402 -0.28073822062206
 6  19.46483868496850  1.59518801360136 -0.40005008870887
 6  19.69821962326233  0.72478790909091 -1.41354714591459
 6  20.64961213011301  2.60120153815382 -0.30924602050205
 1 -3.35081571987199  3.58606985798580  1.17745714741474
 1 -9.41630561306131  4.10010909600960 -0.40488412231223
 1 -9.80311280288029 -2.42864326362636 -0.86136896279628
 1 -2.30791330813081 -1.37297491529153  2.17873792209221
 1 -1.32490182878288  1.30915139133913  0.84823127652765
 1 -1.03997538123812  0.41450976537654  2.79778048914891
 1 -2.10966914081408  2.07226580298030  3.37128324612461
 1 -2.47273960646065  0.49738762406241  3.60550641974197
 1 -2.07227624792479 -1.92400367336734 -0.56650443724372
 1 -1.55945111411141 -0.19315078797880 -0.66726651745175
 1  0.07226522482248 -0.34609604290429  1.19055492069207
 1 -0.00502422222222 -2.25817215101510  1.14607483958396
 1 -3.58340287068707  6.17742557045704  0.24652961066107
 1 -5.52283256385639  6.42107478337834  1.30966787288729
 1 -4.04992602080208  5.52433139413941  1.85875364766477
 1 -8.69836285038504  6.16999210841084  0.01203482768277
 1 -12.02118167176718 -1.54254512201220 -0.73013744094409
 1 -12.74279049404941  0.45850225002500 -1.30687832423242
 1 -12.73484130723072 -1.08901101650165 -3.28139525662566
 1 -11.51123808760876  0.06497391889189 -3.58561073057306
 1 -11.12739956435644 -1.52102541954195 -3.08611521892189
 1 -9.10329951325133 -5.11330788638864 -1.65421764976498
 1 -8.50611582618262 -5.76706671927193 -0.36571622352235
 1 -9.29665694569457 -4.41283324452445 -0.11901729222922
 1 -2.82302188358836 -3.32380610551055 -0.02587089388939
 1  2.95649726512651 -3.64100137393739 -1.43320903800380
 1  2.04000828962896 -1.93779969496950 -2.37842807810781
 1  3.81990931863186 -1.20692344074407 -0.04074047244725
 1  4.30051310831083 -1.72446591909191 -4.08120823582358
 1  6.07569114751475 -1.64404307970797 -3.78085930983098
 1  5.07559138653865 -3.24520713501350 -3.08090227402740
 1  6.22779320122012  0.34763010041004 -2.60705332253225
 1  5.47449255865587  0.78746429422942 -0.99572383578358
 1  7.39205038393839 -1.07247544464446 -0.11218949734974
 1  7.80734613301330 -1.43833262356236 -1.54718419431943
 1  8.65295742714271  0.60229082388239 -1.93650643594359
 1  7.95144364246425  1.31530671887189 -0.19668395999600
 1  9.74499694679468 -1.01157860156016 -0.66725388298830
 1  8.03290553485349 -1.31265008070807  1.46542490329033
 1  9.95426149554955 -1.47667154835484  1.83140503190319
 1  8.94637784938494 -0.10640186258626  2.05171647674768
 1  11.00717435523552  1.12179493939394 -0.63173034463446
 1  10.70730047664766  1.12954182978298  1.03904778507851
 1  12.13247078927893 -0.40543298279828  1.28019170247025
 1  11.93444559855986 -0.64061228182818 -0.44496749424942
 1  12.70699556955696  1.45370491549155 -0.79956886148615
 1  12.80072211701170  1.89087333863386  1.10453624302430
 1  14.49255068086809 -0.19124664066407 -0.24707289848985
 1  14.47798769866987  0.41590198569857  2.77471024402440
 1  14.21195846934693 -1.32338000990099  2.35134263236324
 1  15.53282031513151 -0.73578716181618  1.74052052975298
 1  15.35759689458946  2.06574656805681 -1.15517549224923
 1  15.31879591219122  2.11848138363836  1.07356567976798
 1  17.06292760786079  0.37755092569257  0.85910609730973
 1  17.03774129832983  0.13564173337334 -0.83448482588259
 1  17.57635264236424  2.69702625042504 -1.22833582188219
 1  17.87087708380838  2.51198510541054  0.43926059655966
 1  19.55497805900590  0.84443728992899  0.55812916371637
 1  19.34928324632463  1.48336338593859 -2.33623574877488
 1  20.95201949194919  0.32426062426242 -1.60680481388139
 1  19.03395612261226 -0.30383810221022 -1.39418749344934
 1  20.33819059765976  3.45158473757376  0.29362011561156
 1  21.85699343964396  2.27158374107411  0.07469475447545
 1  20.61422807570757  2.99333682088209 -1.42700749704971
 1 -0.15058068316832 -5.00966371577158  2.76295464346435
 1 -1.94784446544654 -4.75749302300230  4.04388502510251
 1 -1.01850586388639 -3.08605708280828  3.43898805200520
 8 -11.45087346164616  3.93270807000700 -0.88189000270027
 1 -12.69643015451545  2.55982722282228 -1.16735734073407

