%nproc=4
%Mem=2GB
# td=(NStates=1) iop(3/107=0140000000,3/108=0140000000) iop(3/107=0140000000,3/108=0140000000) CAM-B3LYP/6-31G(d,p) 

TD

0 1
12 -6.74745731783178  0.54155329942994  0.05224284378438
 6 -4.50702780928093 -1.98021644344434  0.31380165716572
 6 -4.18649046444644  2.79849148224823  0.83578646024602
 6 -8.87341004570457  3.20009403350335 -0.24856435813581
 6 -9.22819091669167 -1.74203723332333 -0.60931098979898
 7 -4.58309338123812  0.45388478617862  0.46977600970097
 6 -4.02510977657766 -0.78277798459846  0.54630518591859
 6 -2.42607602620262 -0.46232799199920  0.96023808610861
 6 -2.37041700750075  0.94091424022402  1.07551971447145
 6 -3.84598086098610  1.39051913711371  0.74565934063406
 6 -2.03982026772677  1.30612240814081  2.53177774057406
 6 -1.48047679607961 -0.81579414281428 -0.27156583028303
 6 -0.07664578287829 -1.11482318891889  0.18481755525553
 6  0.86042712191219 -1.38513575047505 -0.83507168096810
 8  1.11387145524552 -0.69123173567357 -1.94847583778378
 8  1.85520580718072 -2.20035033363336 -0.42239716221622
 7 -6.62797453965397  2.48288865886589  0.30791453935394
 6 -5.44873543444344  3.32625126832683  0.78224452065207
 6 -5.88098231343134  4.62116180098010  0.61763663226323
 6 -7.17174788818882  4.84709079957996  0.20293687698770
 6 -7.61066277017702  3.40719952835284 -0.06797196579658
 6 -4.94850977127713  5.88317574807481  0.86800446844685
 6 -7.95325688698870  6.11873879397940  0.19694921862186
 8 -7.31857577377738  7.22675429202920  0.28237609440944
 7 -8.79938349184918  0.71483234243424 -0.24013666276628
 6 -9.54238791119112  1.88291302660266 -0.36543759605961
 6 -10.89844647494749  1.63325319641964 -0.69136491769177
 6 -10.83829818731873  0.23865476987699 -0.72546340184018
 6 -9.55538720202020 -0.31380954415442 -0.45793787048705
 6 -11.95659243454345  2.59696588968897 -0.79031368216822
 6 -12.00773389388939 -0.64817838013801 -1.15030316401640
 6 -12.10730759285929 -0.82268443364336 -2.53228602330233
 7 -6.94985146804680 -1.57148971027103 -0.01488413291329
 6 -8.10052271387139 -2.23165316201620 -0.39281247924792
 6 -7.68265585068507 -3.75501282368237 -0.25690670077008
 6 -6.35589121032103 -3.66847600850085 -0.03859211981198
 6 -5.83152944164416 -2.26702551705170  0.13416960126013
 6 -8.42593111661166 -4.86669404720472 -0.66218903480348
 6 -5.02109831433143 -4.44429022712271  0.17036506220622
 8 -4.99699144784478 -5.72271280958096  0.00707121372137
 6 -3.93441716711671 -3.45592615181518  0.31825647284728
 6 -3.20091360226023 -3.71310748624863  1.75673538653865
 8 -3.80142538263826 -4.03503023782378  2.66878554835484
 8 -1.76129780468047 -3.58719502480248  1.77576751595160
 6 -1.24788331043104 -3.86206129622962  2.84033845904590
 6  3.04875676847685 -2.23097827472747 -1.26391763586359
 6  4.16053982138214 -1.29622662376238 -0.97303283558356
 6  4.96744750015001 -0.82951982338234 -1.78457465906591
 6  5.04076806060606 -1.29073220792079 -3.32829981218122
 6  6.07806163076308  0.14647699479948 -1.31224778327833
 6  7.54625331933193 -0.57279306140614 -0.87858459575958
 6  8.57075963626363  0.35942157675768 -0.43783226372637
 6  9.67636072547255 -0.49816673697370  0.21152284658466
 6  9.41431894819482 -1.08922773747375  1.62955732453245
 6  10.91660399039904  0.52219707390739  0.18783362176218
 6  12.26410168066807 -0.15660435323532  0.65085339653965
 6  13.35227677027703  0.98701597629763  0.72848574697470
 6  14.61215755095510  0.37305058315832  0.87551221332133
 6  14.94068905700570 -0.07945022552255  2.22933285728573
 6  15.75281490989099  1.34581948394839  0.61910511581158
 6  16.92065154325433  0.82096732113211  0.01551467756776
 6  18.04714426182618  1.69522671387139 -0.51335148194819
 6  19.52329453055306  0.98598709350935 -0.74867495119512
 6  19.56813661496150  0.30736616691669 -2.05747153835384
 6  20.86740390929093  1.85105652365237 -0.67850294619462
 1 -3.45690632893289  3.57733898489849  1.16010541224122
 1 -9.89450343284328  3.98107719281928 -0.13829746364637
 1 -9.83379587118712 -2.51877227652765 -0.84716754265427
 1 -2.10476299309931 -1.28356597439744  1.37575762406241
 1 -1.63425276387639  1.55792626882688  0.50265671907191
 1 -1.15654703840384  0.65116343074307  2.52663337443744
 1 -1.72241041494150  2.20595917231723  2.60454657245724
 1 -2.77250958345835  1.41982986828683  3.26870273937394
 1 -1.76555557585758 -1.61101237423742 -0.90390817761776
 1 -1.41192636163616 -0.06132760566057 -0.79241903270327
 1  0.17056505480548 -0.44005543884388  0.95533139833983
 1  0.17929420962096 -2.03083941774177  0.77699793189319
 1 -4.34714924532453  5.94183201110111  0.01849680738074
 1 -5.52795307590759  6.87828050395039  0.74111101720172
 1 -4.51880290849085  5.93395235623562  1.93022079437944
 1 -9.17509052315232  5.83845895509551  0.35901952615261
 1 -12.15295484908491 -1.38028889638964 -0.64519894709471
 1 -12.94004021902190 -0.36659025922592 -0.88402603900390
 1 -13.05169299239924 -1.40332244764476 -2.90680779787979
 1 -12.17855481928193  0.37880530203020 -3.10165233473347
 1 -11.43047987238724 -1.50137345434544 -2.73011961936194
 1 -8.75556473977398 -4.79295585118512 -1.63517574557456
 1 -7.99247446204621 -5.68838885148515 -0.83217286918692
 1 -8.99590687068707 -4.70860282148215 -0.17990338083808
 1 -3.09571915331533 -3.36430015491549 -0.72131043784378
 1  3.44322593799380 -3.17676495029503 -1.26947266436644
 1  2.59547383618362 -2.21145706070607 -2.10510074537454
 1  4.23647097479748 -1.05584833323332  0.03815741734173
 1  4.04711776877688 -1.01602507500750 -3.75541565656566
 1  5.89913349174918 -0.86209488488849 -4.00370159405941
 1  5.47554138153815 -2.51228384268427 -3.21436562036204
 1  6.28884930683068  0.40903624102410 -2.28890150735073
 1  5.72916802620262  0.97352290009001 -0.54379864326433
 1  7.00667184608461 -1.02522071917192 -0.10032831123112
 1  8.02024742314231 -1.27327611791179 -1.56519599549955
 1  8.62436456785679  0.75217581238124 -1.53211599689969
 1  8.09424792289229  1.46687187538754  0.17352306070607
 1  10.11377382448245 -1.49982742644264 -0.38259541714172
 1  8.82297454175418 -1.88872768846885  1.62843120392039
 1  10.55219128852885 -1.14731861306131  2.10089198059806
 1  9.32545575717572 -0.23336455885589  2.19823112821282
 1  10.90104374217422  0.83653641354135 -1.09349652125213
 1  10.56842658925892  1.61849072467247  0.92574645494549
 1  12.27945548774877 -0.43056549604960  1.76086977027703
 1  12.59494164816482 -0.79474769536954  0.07274427692769
 1  13.32193706370637  1.68651819681968 -0.28948785338534
 1  13.08754079887989  1.96326057735774  1.59624541394139
 1  14.53720514631463 -0.46525404140414  0.21180298909891
 1  14.90396029592959  0.68483887938794  3.02116488948895
 1  14.30981825532553 -0.98534620652065  2.38775627372737
 1  16.07826485958596 -0.31755533863386  2.46821329902990
 1  15.57533866876688  2.07401739513951  0.09153917921792
 1  15.90828486108611  1.78593812931293  1.28463678687869
 1  17.21439275437544  0.09758292889289  0.73024321102110
 1  16.32378990319032  0.12904107330733 -0.87448882628263
 1  17.82201720882088  2.06559310711071 -1.22896588488849
 1  18.48698869496950  2.63591749864987 -0.08388171767177
 1  19.31817437863787  0.32751559775978  0.19200255105510
 1  19.40724904290429  0.96771182078208 -2.68533065826583
 1  20.55546983698370  0.06629482768277 -2.36494062746275
 1  18.78470119711971 -0.39715743414341 -2.58638671337134
 1  20.73949072767277  2.47631721082108  0.19379013261326
 1  22.16802454275428  1.32082866556656 -0.65406812181218
 1  20.90868752165216  2.55082256945695 -1.50895569186919
 1 -0.40508613371337 -4.47848059745975  2.73031137913791
 1 -1.77275695669567 -4.69604687838784  3.05045568216822
 1 -1.15340935423542 -3.11048952605260  3.54896905010501
 8 -11.90997937223722  3.70271507070707 -0.81094290799080
 1 -12.77593810531053  2.25271651175117 -1.18614921992199

