%nproc=4
%Mem=4GB
# td=(NStates=1) iop(3/107=0140000000,3/108=0140000000) iop(3/107=0140000000,3/108=0140000000) CAM-B3LYP/6-31G(d,p) 

TD

0 1
12 -5.60555206180618  1.21214608890889  0.11695030023002
 6 -5.04534492169217 -2.12298076137614 -0.35815268206821
 6 -3.40011880098010  1.19430971577158  2.75735110841084
 6 -6.15365416111611  4.53531679587959  0.64803501230123
 6 -8.03122888998900  1.24688553925393 -2.39637731123112
 7 -4.29506375967597 -0.29321751355136  0.96340767956796
 6 -4.25700922842284 -1.59841354295430  0.68544089368937
 6 -3.25762888738874 -2.35349865266527  1.44791915561556
 6 -2.87560073107311 -1.32561545244524  2.58370492659266
 6 -3.52654008140814 -0.01242387008701  2.00569515471547
 6 -3.42229526892689 -1.77896133753375  3.89360205960596
 6 -1.97351254445445 -2.77567497679768  0.61892719821982
 6 -1.04907655115512 -3.71597917851785  1.34588817681768
 6  0.24831993249325 -4.02865670637064  0.64669286398640
 8  0.53994405870587 -3.50656797039704 -0.38464469866987
 8  1.09214606030603 -4.84075369266927  1.37905251255126
 7 -4.89393020932093  2.54616399329933  1.58767899959996
 6 -3.95427751755176  2.43286070777078  2.56858746204620
 6 -3.69941944564456  3.68660716291629  3.17767832403240
 6 -4.49974052675268  4.61358288658866  2.54578384968497
 6 -5.28353445764576  3.95397349254925  1.54673076537654
 6 -2.59724508760876  3.72674004980498  4.26333052245225
 6 -4.49437596819682  6.03958137863786  2.78913841864186
 8 -4.07538758675868  6.58672656065607  3.77281118101810
 7 -6.88989278917892  2.67123701950195 -0.67038869516952
 6 -6.96135885068507  3.96418603580358 -0.29463115181518
 6 -8.02368755515552  4.64710143494349 -1.17277138663866
 6 -8.51974142744274  3.69872680258026 -1.99543848824882
 6 -7.75933482398240  2.46443245204520 -1.68830477697770
 6 -8.17499048994900  6.04306421582158 -1.13128263706371
 6 -9.54147851115112  3.92964336253625 -3.01467610041004
 6 -9.00672212591259  4.05706385258526 -4.48144454845485
 7 -6.30830924992499 -0.02170718841884 -1.25224031603160
 6 -7.38862839243924  0.06999093049305 -2.22189640034003
 6 -7.62398990619062 -1.30573227682768 -2.69683220582058
 6 -6.69172872167217 -2.14509408120812 -2.08152431813181
 6 -5.94533294869487 -1.31665523062306 -1.18233436383638
 6 -8.57244270207021 -1.57439756575658 -3.75418231443144
 6 -6.22105577267727 -3.61158674257426 -2.06237979307931
 8 -6.50570496599660 -4.52416011441144 -2.71918818391839
 6 -5.02290085218522 -3.56598465106511 -0.91120344014401
 6 -5.31780925832583 -4.66709215031503  0.10037370917092
 8 -5.79996576817682 -4.53288229632963  1.29336569997000
 8 -5.09924962316232 -5.92801399779978 -0.45791893649365
 6 -5.33975153935394 -6.97197905120512  0.51391322112211
 6  2.28545951915192 -5.13790491069107  0.67093104750475
 6  3.40905544054405 -4.18461862276228  1.08097599739974
 6  4.06554594479448 -3.28190106020602  0.20095373037304
 6  3.65505984488449 -3.22109705100510 -1.24026353085309
 6  5.16066249204921 -2.49914496209621  0.75517931673167
 6  6.48468333963396 -2.79799272447245  0.00175164256426
 6  7.63097842144214 -1.77817717321732  0.46891258175818
 6  8.98625944724472 -1.90333516711671 -0.16915469796980
 6  9.60886726842684 -3.31537217761776  0.05084162646265
 6  9.95327590669067 -0.87993823122312  0.46040855635564
 6  11.37967526992699 -0.86037564446445 -0.18397716391639
 6  12.25277296589659  0.27769239673967  0.33101994959496
 6  13.57581003680368  0.32180705060506 -0.39218398159816
 6  14.55381368036804 -0.70293969656966  0.03666951605161
 6  14.30257619721972  1.86149232083208 -0.18811806660666
 6  15.42168635903590  2.22261028922892 -1.18032302730273
 6  15.85142772717272  3.60957571037104 -0.79846045924592
 6  17.25424067316732  3.97262510411041 -1.38396233143314
 6  17.13600619031903  3.95212010371037 -2.91746397059706
 6  17.84864427052705  5.27826309160916 -0.88875833473347
 1 -2.76398212101210  1.25820009540954  3.68014848324832
 1 -6.39545752455245  5.65989136953695  0.75475446714672
 1 -8.92959336653665  1.10934123702370 -3.11500697949795
 1 -3.87298836363636 -3.30635595099510  1.89242730353035
 1 -1.75750287418742 -1.14434209580958  2.51583285938594
 1 -2.83558333743374 -2.78198135933593  4.12320586458646
 1 -3.45130592329233 -1.00264016841684  4.55202723252325
 1 -4.54741725342534 -2.09702878377838  4.03252720322032
 1 -2.28222353605361 -3.23745326262626 -0.35991661546155
 1 -1.37831566396640 -2.01713082938294  0.19105722732273
 1 -0.94604003750375 -3.26749804540454  2.39322354105411
 1 -1.33924864646465 -4.62932006320632  1.64765656365637
 1 -1.56672678647865  3.53614313871387  3.78818472817282
 1 -2.70841183128313  4.90348755475548  4.59986624432443
 1 -2.97067006200620  3.27474847234723  5.17483248924892
 1 -5.09227229112911  6.54500869526953  2.06996231763176
 1 -10.37930706420642  3.12478313541354 -2.93814706640664
 1 -10.19471026892689  4.77272111621162 -2.69864015471547
 1 -9.87668746854686  3.94818323232323 -5.17453265556556
 1 -8.43726323572357  5.01438118351835 -4.77086704170417
 1 -8.21368121712171  3.31279063786379 -4.59381930673067
 1 -8.22965055465547 -0.96177672057206 -4.64322532083208
 1 -8.54587557055706 -2.77497090219022 -3.91319395639564
 1 -9.56332641214122 -1.33074989838984 -3.60316722342234
 1 -4.18444580198020 -3.84368919551955 -1.34838812571257
 1  2.56052718571857 -6.12711065406541  1.11522747964797
 1  2.04789553295330 -5.33433040914091 -0.40261371097110
 1  3.40975309760976 -3.98997827962796  2.31865687328733
 1  2.54009899659966 -3.32755837693769 -1.60499304030403
 1  3.62449706300630 -2.10490404970497 -1.64558702920292
 1  4.29923209720972 -3.88552228142814 -1.83204213011301
 1  4.84736477737774 -1.38246467046705  0.61835371887189
 1  5.02575110241024 -2.66459809220922  1.88974385468547
 1  6.85197272397240 -3.74063725582558  0.10692857685769
 1  6.21839199959996 -2.47330493949395 -1.06128672417242
 1  7.24130306160616 -0.73032635773577  0.34132137763776
 1  7.54639674257426 -1.90933751685169  1.75792017731773
 1  8.78606271557156 -1.66439471467147 -1.15617895599560
 1  9.02885740444044 -4.19035780718072 -0.25508930133013
 1  10.69450879167917 -3.48081228332833 -0.20075018851885
 1  9.71536059745975 -3.52861395289529  1.17180762346235
 1  9.51457060766077  0.05739146534653  0.45617098089809
 1  10.07287738523852 -1.03950048394840  1.73708324832483
 1  11.97983312461246 -1.71802183408341  0.14506013281328
 1  11.51249733643364 -0.82925583048305 -1.31732306590659
 1  11.82923395689569  1.32739716891689  0.02931337613761
 1  12.33256808010801  0.22228341974197  1.39807808800880
 1  13.57926472717272  0.20757518981898 -1.62857509620962
 1  14.76346568486849 -0.75926413911391  1.08024370437044
 1  14.13342891389139 -1.77240625692569 -0.30349667116712
 1  15.49342033043304 -0.81413461166117 -0.44252114461446
 1  13.54175236943694  2.57526214531453 -0.21116290399040
 1  14.47008370867087  2.09680997019702  0.95331254515452
 1  16.27504916071607  1.61548016071607 -1.07611410211021
 1  15.08614419781978  2.31036494929493 -2.19263064276428
 1  15.04158556315632  4.52660803880388 -0.82872487058706
 1  16.03944671477148  3.84574121552155  0.49487938833883
 1  17.95544922632263  3.20598208940894 -1.00533961356136
 1  16.22761348174817  4.51267779667967 -3.17134949474947
 1  18.07377330083008  4.45235474877488 -3.38226283138314
 1  17.14502470267027  3.07653872387239 -3.46320435503550
 1  18.11909795699570  5.21747296479648  0.29615127932793
 1  18.83065058735874  5.50066421862186 -1.35930284468447
 1  17.16929848074808  6.19805930903090 -1.09246330763076
 1 -4.85632093349335 -7.86002543564356  0.16821328362836
 1 -6.47517194749475 -7.18299538613861  0.69752325982598
 1 -4.80913908250825 -6.72934451005101  1.37400185678568
 8 -7.66794438603860  6.87104360516052 -0.43126091009101
 1 -8.88823712081208  6.27730337523752 -2.01417710051005

