%nproc=4
%Mem=2GB
# td=(NStates=1) iop(3/107=0140000000,3/108=0140000000) iop(3/107=0140000000,3/108=0140000000) CAM-B3LYP/6-31G(d,p) 

TD

0 1
12 -6.66219879197920  0.62069121322132  0.19354697419742
 6 -4.39766687318732 -1.98112653445345  0.39765004200420
 6 -4.12071388678868  2.85022665576558  1.00675355695570
 6 -8.87703040774078  3.20873489758976 -0.19094859655966
 6 -9.18951704930493 -1.72358538813881 -0.44281434013401
 7 -4.73214828672867  0.35150454815482  0.69481851395140
 6 -3.90350761636164 -0.85156486328633  0.70130068546855
 6 -2.38021143974397 -0.59486124532453  0.89571163346335
 6 -2.36714668046805  0.93447359615962  1.14657682018202
 6 -3.81217748064806  1.40089017421742  1.04252902760276
 6 -1.95197148284828  1.22052384828483  2.65545010781078
 6 -1.44462321072107 -0.90756331973197 -0.23865253895389
 6 -0.09030714901490 -1.33127483408341  0.21411048454845
 6  0.72773385258526 -1.40521775867587 -0.93763193699370
 8  0.48027809590959 -0.89621223372337 -2.06808779897990
 8  1.90098038463846 -2.12039233783378 -0.63881880438044
 7 -6.41881362356236  2.49143951395139  0.35943969186919
 6 -5.44124468536854  3.26600524372437  0.65186148234824
 6 -5.77144135933593  4.77512719751975  0.57930279887989
 6 -7.02730344374437  4.80712680318032  0.22477906120612
 6 -7.64674637853785  3.47000580898090  0.20105493689369
 6 -4.54221914221422  5.76623405390539  0.94591225922592
 6 -7.65135669696970  6.12511943204320  0.06232575627563
 8 -7.16341025722572  7.28626024262426 -0.01588373157316
 7 -8.74103765726573  0.71507236643664 -0.15565821492149
 6 -9.46798047044705  1.84203893919392 -0.25751680398040
 6 -10.77348397869787  1.68165803690369 -0.56272205340534
 6 -10.97127148464846  0.25162606700670 -0.60417127262726
 6 -9.48008967226723 -0.29785794899490 -0.44399647634763
 6 -11.67381415671567  2.65051124422442 -0.89870452125212
 6 -12.15480860136014 -0.53356691899190 -0.95585371907191
 6 -12.39184604670467 -0.66285845104510 -2.39795258995900
 7 -6.79539602250225 -1.36094865616562 -0.03376602110211
 6 -7.97502016361636 -2.19498949564957 -0.34029722772277
 6 -7.51764935003500 -3.61644896729673 -0.39576058615862
 6 -6.16866248744874 -3.64776393729373 -0.10610887148715
 6 -5.81359764846485 -2.28755757025703  0.09114529882988
 6 -8.46330485398540 -4.85320269806981 -0.53894671057106
 6 -5.05977218171817 -4.58445424352435  0.15732375807581
 8 -4.82828457715772 -5.69519005730573 -0.19675916931693
 6 -3.89203292869287 -3.58151871107111  0.40126477367737
 6 -3.30569408030803 -3.71753792929293  1.77428714171417
 8 -3.81025626572657 -3.98779551435144  2.88626729652965
 8 -1.95612728762876 -3.64895120042004  1.69588952815282
 6 -1.30558908100810 -4.12116720682068  2.88202262746275
 6  2.88341023382338 -2.53424860176018 -1.62116336043604
 6  3.98456222362236 -1.45280228132813 -1.38623415571557
 6  5.02159291469147 -1.19977684908491 -2.19632583418342
 6  5.00144412821282 -1.63639677437744 -3.45531251345134
 6  5.94160798539854 -0.17779543244324 -1.76893345184518
 6  7.39927862186219 -0.89917569966997 -1.19942667996800
 6  8.35781834213421  0.24671030563056 -0.82784126462646
 6  9.65591868126813 -0.46883380368037  0.07513920822082
 6  9.23697121342134 -0.79022783748375  1.46526089488949
 6  10.73444577457746  0.55415026922692 -0.00177533913391
 6  12.08784405490549 -0.08976766956696  0.42873118431843
 6  13.19150069266927  0.94903217791779  0.44086698509851
 6  14.61150748594859  0.37496077417742  0.76973163526353
 6  14.64677966606661  0.03418113761376  2.35512543654365
 6  15.61684131253126  1.42573747574757  0.24011721702170
 6  17.02833231133113  0.92291751615161  0.09783290939094
 6  18.06448599599960  2.02463965516552 -0.17857800460046
 6  19.42204440554055  1.42999149394939 -0.15826591029103
 6  19.90651045234523  0.33991942224222 -1.36974276547655
 6  20.67090425932593  2.46164758275828 -0.31394649054905
 1 -3.20796143444344  3.54532578357836  1.39134853655366
 1 -9.65889987248725  4.00497958305831 -0.12482611651165
 1 -10.28224071567157 -2.20636103540354 -0.59409223512351
 1 -2.24922743954395 -0.84696231403140  1.70649069736974
 1 -1.52668200680068  1.37452792899290  0.49501595499550
 1 -1.05347673137314  0.83095140954095  3.10332104320432
 1 -1.77207538143814  2.26697527392739  2.80545666346635
 1 -2.58975130763076  0.91128901420142  3.37966383548355
 1 -1.71702072237224 -1.38173944694469 -1.27198498529853
 1 -1.42695786478648  0.15610413751375 -0.53527331813181
 1  0.37640563886389 -0.78590002330233  1.04435030023002
 1 -0.26554027382738 -2.22344867866787  0.76107633973397
 1 -3.88456298669867  5.71566939483948 -0.00731577387739
 1 -5.20643092369237  6.70698337423742  0.89187609370937
 1 -4.00187121532153  5.33105206620662  1.73514128642864
 1 -8.62494550865086  5.82476758595860  0.01296492069207
 1 -12.11712126572657 -1.47711857935794 -0.47332175937594
 1 -12.92773898889889  0.13611001080108 -0.69247688408841
 1 -13.36899472257226 -0.64851696709671 -2.65466258335834
 1 -11.76162312611261  0.17982540404040 -3.09191136063606
 1 -11.73403022742274 -1.47371068806881 -2.74003061046105
 1 -9.21073025632563 -4.52511906750675 -1.50812304030403
 1 -7.75943115771577 -5.58425843844384 -0.65911556345635
 1 -9.13231051105111 -5.12226418761876  0.51609621912191
 1 -3.13946352775277 -3.45884960986099 -0.73524183098310
 1  3.17017863326333 -3.56192346614662 -1.57830354745475
 1  2.45444973377338 -2.48441435643564 -2.62200243554355
 1  4.15415274297430 -1.08536128452845 -0.35716211461146
 1  4.50367342434243 -1.44014748724872 -4.32489260426042
 1  5.89010258865887 -1.82249092449245 -3.76577780168017
 1  4.43226705410541 -2.59185179947995 -3.53791797559756
 1  6.53054347624762  0.51939727712771 -2.57437005420542
 1  5.39871498089809  0.76793234103410 -1.17921218461846
 1  7.01159233813381 -1.28852704980498 -0.36361463986399
 1  7.61668706710671 -1.59964875517552 -2.02805228112811
 1  8.45712784418442  0.74985558035804 -1.86031881718172
 1  7.74827332543254  1.17270245844584 -0.25404969656966
 1  10.31183363046305 -1.70242768646865 -0.28401555915592
 1  8.48894113841384 -1.52954176987699  2.04923328412841
 1  9.98076414581458 -1.06584046524652  1.85973786518652
 1  9.09279249084909  0.12868164576458  2.29765107020702
 1  11.02122576037604  0.87704046394639 -0.99792696429643
 1  10.43628337493749  1.02373124872487  0.66361024132413
 1  12.08477601980198 -0.54926736623662  1.21935561886189
 1  12.56589874387439 -0.75516373697370 -0.28620161766177
 1  13.14780965096510  1.25488503350335 -0.63963286788679
 1  12.94928697349735  1.95909016031603  1.12704849424942
 1  14.83522494829483 -0.41576909290929  0.06306811561156
 1  14.54862476237624  0.94271466696670  3.02775554855486
 1  13.58417569106911 -0.69080675257526  2.88028552665267
 1  15.56081311441144 -0.46188977207721  2.37328380608061
 1  15.52590372527253  1.79694968836884 -0.91529150385038
 1  15.82874690729073  2.18774831033103  0.78312663586359
 1  17.46314762986298  0.27627079767977  0.92446263296330
 1  17.22306983118312  0.21809997919792 -0.80302167956796
 1  17.91400640774078  2.58947549534953 -1.24078706700670
 1  17.89582957905791  2.89558346524652  0.89609628012801
 1  19.67148971017102  1.13570641684168  0.63253660446045
 1  20.02570088808881  1.07254230383038 -2.52267439263926
 1  20.91694598459846 -0.31490329212921 -1.10809494289429
 1  19.14348707570757 -0.50931865026503 -1.38817689238924
 1  20.34369114771477  3.21862144124412  0.31446219981998
 1  21.74617235753576  1.88597518021802 -0.01692440744074
 1  20.78484513741374  3.13012049924993 -1.31130592689269
 1  0.03677805270527 -3.80344309370937  2.79480782878288
 1 -1.53174285528553 -5.67881515521552  2.58388902550255
 1 -2.10674468776878 -3.84437291439144  4.29138329152915
 8 -11.47369574387439  3.94591939113911 -0.84444625832583
 1 -12.63847435893589  2.46758799889989 -1.30499110411041

