%nproc=4
%Mem=2GB
# td=(NStates=1) iop(3/107=0140000000,3/108=0140000000) iop(3/107=0140000000,3/108=0140000000) CAM-B3LYP/6-31G(d,p) 

TD

0 1
12 -6.79845241734173  0.48806795089509  0.10001762126213
 6 -4.46155326182618 -2.15496391819182  0.39236951395140
 6 -4.16997881328133  2.75296692979298  0.72919580118012
 6 -8.93039574427443  3.31182520662066 -0.31007050875088
 6 -9.45685378297830 -1.78178120772077 -0.50481053975398
 7 -4.68437350925092  0.32785218291829  0.47730676277628
 6 -3.99469673527353 -0.94157386418642  0.65919647504750
 6 -2.41833525212521 -0.59346110531053  0.94125618791879
 6 -2.43966393219322  0.90428057685769  1.22520468296830
 6 -3.86725298819882  1.29838992419242  0.71111588628863
 6 -2.41355764146415  1.13733552945295  2.66798136093609
 6 -1.59293804220422 -1.04969753315332 -0.18661733543354
 6 -0.16773489178918 -1.35486719331933  0.15359443294329
 6  0.66743782298230 -1.44056129302930 -0.94658283208321
 8  0.72662273037304 -0.88658127062706 -2.09709069926993
 8  1.99077936453645 -2.14044434303430 -0.60760568306831
 7 -6.54117585978598  2.66423679367937  0.20426417431743
 6 -5.40439100000000  3.32596123932393  0.55041133733373
 6 -5.65037925312531  4.82378206300630  0.66285115371537
 6 -6.99653036643664  4.99903599409941  0.36339292259226
 6 -7.57009871377138  3.59879868826883  0.08522335373537
 6 -4.59007392769277  5.90233766426643  0.88258592659266
 6 -7.91856341764176  6.31566848694869  0.33566309000900
 8 -7.23037695389539  7.35396701330133  0.37972582938294
 7 -8.77520107360736  0.65778663786379 -0.30929357845785
 6 -9.43176684908491  1.92220695599560 -0.28883993629363
 6 -10.86655328562856  1.62455232633263 -0.65958173937394
 6 -10.98724308180818  0.24025492989299 -0.72226308180818
 6 -9.76205786908691 -0.30769893309331 -0.46462853955396
 6 -11.98307508280828  2.58094428752875 -0.95682033283328
 6 -12.38879199969997 -0.46883044534453 -1.09166730043004
 6 -12.44597145924592 -0.79851201640164 -2.65385818051805
 7 -6.94837132003200 -1.39608216951695 -0.12178482298230
 6 -8.24244690629063 -2.27590758745875 -0.19032223022302
 6 -7.69290687578758 -3.62483980638064 -0.35548655875588
 6 -6.40280590179018 -3.72004116501650 -0.04971323192319
 6 -5.89273556225622 -2.33051186568657  0.11300748504851
 6 -8.66577510101010 -4.73322069986999 -0.60515333123312
 6 -5.15926213071307 -4.56048184628463  0.08936696239624
 8 -4.99469121782178 -5.80685122342234 -0.08387788118812
 6 -3.87833155855586 -3.58320888008801  0.51818646584658
 6 -3.39099261016102 -3.96881305680568  1.85578529152915
 8 -4.18311355145515 -4.23183991879188  2.85004367416742
 8 -2.11934360926093 -3.67589389468947  1.91521146034603
 6 -1.53800232233223 -4.23020811091109  3.02643706890689
 6  2.98383027582758 -2.14474965186519 -1.53809505360536
 6  4.06535030243024 -1.28251525262526 -1.17307283958396
 6  5.24396515191519 -1.01132800420042 -1.94579078067807
 6  5.59532351615161 -1.76542967766777 -3.13852083428343
 6  6.12588641324132  0.22351469856986 -1.42616917541754
 6  7.36625531953195 -0.54173995609561 -0.91906864416442
 6  8.57483004330433  0.37776341094109 -0.60590907140714
 6  9.81631472087209 -0.14850177047705  0.11532322662266
 6  9.54133164946495 -0.48939775447545  1.58160252905291
 6  11.03216554655466  0.85004985918592  0.12149698809881
 6  12.34229950045004  0.28686999419942  0.50102841404140
 6  13.56525806840684  1.05021229592959  0.61721461986199
 6  14.94121045624563  0.50299357745775  0.76579124122412
 6  15.27555254335434  0.05875359485949  2.18448837283728
 6  16.06060568896890  1.45554045604560  0.28459166446645
 6  17.49311878997900  0.56863208760876  0.17822094819482
 6  18.37539708710871  1.75029222042204 -0.26315646244624
 6  19.70915311641164  1.00231872667267 -0.58382846654665
 6  19.70649045034504 -0.01921649134913 -1.88091388258826
 6  20.90543771267127  2.01826324432443 -0.64325942184218
 1 -3.67446808510851  3.45055630663066  1.15889529122912
 1 -9.75794977747775  4.15679476457646 -0.81433506740674
 1 -10.16447893949395 -2.41342174147415 -0.71051387728773
 1 -2.01778429522952 -1.38294591239124  1.67677772607261
 1 -1.85687502610261  1.71102157835784  1.11430788418842
 1 -1.30447183088309  0.55169348374837  2.77456816791679
 1 -2.33016119001900  2.24674325072507  3.00060617841784
 1 -3.10954328682868  0.65373325862586  2.98873474257426
 1 -1.93227224752475 -1.96856812981298 -0.58463625042504
 1 -1.44270943994399 -0.67845931883188 -0.76308609940994
 1  0.37328532683268 -0.47654908820882  0.78368423362336
 1 -0.30973469326933 -2.27796413021302  0.72404263636364
 1 -3.76016054645465  6.09793762166217 -0.18311335363536
 1 -4.92204248484849  6.97609028492849  1.22481938803880
 1 -3.67720874907491  5.62024098509851  1.74878265056506
 1 -9.34646766086609  5.87567267646765 -0.03522989878988
 1 -12.26113566716672 -1.37742861036104 -0.63661808900890
 1 -13.13800001500150 -0.02446604680468 -1.08670630703070
 1 -13.38244606770677 -1.51160327572757 -3.11314843194319
 1 -12.59779674347435  0.08363578507851 -2.99273144264426
 1 -11.53716054045405 -1.34719803680368 -2.68163477087709
 1 -9.04834401770177 -4.55052160776078 -1.62358458645865
 1 -8.29800501510151 -5.72161217381738 -0.59417906980698
 1 -9.73360064006401 -4.87273923512351  0.07507211671167
 1 -2.99595917731773 -3.30905463036304 -0.38639694649465
 1  3.52211382678268 -3.10100737453745 -1.65669138623862
 1  2.75330961976198 -1.86053196819682 -2.65337557285729
 1  3.73128045574557 -0.49842259065907 -0.23201960036004
 1  4.93086614361436 -1.43037651015102 -3.79053916891689
 1  6.43646722512251 -1.55821449684968 -3.45049627352735
 1  5.22928675607561 -3.00262287658766 -3.02485666946695
 1  6.39380980288029  0.82391772917292 -2.40559317651765
 1  5.44661977137714  0.62688823662366 -0.93388765216522
 1  7.19883106200620 -1.33864206130613  0.08962068366837
 1  7.70250564896489 -1.62655144544454 -1.51885136103610
 1  8.79507163856386  0.87405800060006 -1.55534832013201
 1  8.14838333643364  1.00234542274227 -0.02285657725772
 1  10.08737118421842 -1.13003044674467 -0.26979413701370
 1  8.67318956325633 -1.19659847554756  1.50760912171217
 1  10.51556762616262 -0.48254213541354  2.64704659605961
 1  8.90896410801080  0.46781555915592  2.04993629872987
 1  11.05560919871987  1.29978273817382 -0.87775494709471
 1  10.74834458105811  1.55593446904690  0.70047392769277
 1  11.97400494269427 -0.22230466996700  1.47216089938994
 1  12.09623177717772 -0.44329254985499  0.09569657215722
 1  13.49535440544055  1.61913145814581 -0.11995089968997
 1  13.65404744954495  1.78359261056106  1.33441923132313
 1  15.10207163296330 -0.48894641064106  0.38010981978198
 1  15.52372227212721  0.91007140264026  2.88486125912591
 1  14.48318559205920 -0.72723039493949  2.48328582668267
 1  16.29248628172817 -0.36362994609461  2.36903338103810
 1  15.73696483138314  2.01681167456746 -0.41203117781778
 1  16.16936096869687  2.35102463796380  0.87722604580458
 1  17.97400871597160  0.38351152175218  1.18275846254625
 1  17.26281380558056  0.01537970717072 -0.42213359075908
 1  17.68160316741674  2.10803735153515 -1.07143013131313
 1  18.78797879397940  2.60091399829983  0.51203787428743
 1  19.72356491769177  0.33649649584958  0.10781413221322
 1  19.21012933093309  0.59225427502750 -2.39454157935794
 1  20.61169545954595 -0.70493229502950 -1.87920205360536
 1  18.98952167916792 -0.89708742714271 -1.90926900160016
 1  21.37130390899090  2.84062364146415  0.03190394399440
 1  21.75391313161316  1.50418700140014 -1.13908662366237
 1  20.69165581848185  2.62462995019502 -1.52919771607161
 1 -0.35137076217622 -4.35726847624762  2.71825017301730
 1 -1.87487716871687 -5.32326960066007  3.27925856245625
 1 -1.89597361066106 -3.34523300040004  3.79726387958796
 8 -11.76010438473847  3.82153695289529 -0.91663347704770
 1 -13.08863937543754  2.47603884398440 -1.15058566356636

