%nproc=4
%Mem=2GB
# td=(NStates=1) iop(3/107=0140000000,3/108=0140000000) iop(3/107=0140000000,3/108=0140000000) CAM-B3LYP/6-31G(d,p) 

TD

0 1
12 -6.82930550265027  0.71360050415042  0.14535215471547
 6 -4.34417152365236 -2.02142056385639  0.33008328532853
 6 -4.38759057445745  2.85414704780478  0.82508539013901
 6 -9.04928763346335  3.36007003110311 -0.46122562426243
 6 -9.25943404100410 -1.79191222082208 -0.52322238093809
 7 -4.78174324622462  0.45490488818882  0.51072010411041
 6 -3.90109737533753 -0.66322602940294  0.37701825722572
 6 -2.55545896449645 -0.44099585878588  0.68257031933193
 6 -2.67694766056606  1.04085423422342  1.10703286578658
 6 -4.06922318521852  1.54623470867087  0.95172994769477
 6 -2.35058134383438  1.34727652355235  2.54123868666867
 6 -1.61275002340234 -0.73770633403340 -0.32012068576858
 6 -0.14366248454845 -1.01871357795780  0.19008808230823
 6  0.94971605080508 -1.21116835373537 -0.82719089288929
 8  0.92349241734173 -0.72993560606061 -2.00505149534954
 8  1.96709699629963 -1.93611390999100 -0.42743766626663
 7 -6.68250999319932  2.72294266426643  0.15451919981998
 6 -5.63219378027803  3.41023966716672  0.61700799699970
 6 -5.96343055825583  4.85016470127013  0.68277314591459
 6 -7.29817053045305  5.01264735523552  0.13792037533753
 6 -7.81038274217422  3.70218902730273 -0.01546671527153
 6 -5.09414433473347  5.87833526402640  0.99174684268427
 6 -8.11955351665167  6.25442236233623  0.09142866656666
 8 -7.85354927112711  7.36461807840784  0.28900675747575
 7 -8.81015456895689  0.64480533973397 -0.27347999709971
 6 -9.41289496189619  1.88483321862186 -0.45958701100110
 6 -10.88223485378538  1.54275414651465 -0.72135791699170
 6 -11.06003036053605  0.09388029242924 -0.66497735323532
 6 -9.59266092939294 -0.49220738393839 -0.42006408310831
 6 -11.97146392169217  2.31171736483648 -0.92292694349435
 6 -12.17332045254525 -0.65059862216222 -0.97353548724872
 6 -12.10413727582758 -1.34764692989299 -2.28224101880188
 7 -6.90015649854986 -1.31482404370437  0.01174853035303
 6 -7.96536919851985 -2.24126412311231 -0.32733593159316
 6 -7.53192077717772 -3.64127144954495 -0.36121713181318
 6 -6.21507712891289 -3.66377553845384  0.08671041044104
 6 -5.77613390209021 -2.12512132663266  0.10301648594860
 6 -8.35904442794279 -4.73401077887789 -0.78821163706371
 6 -5.16597280178018 -4.48222402050205  0.23962198789879
 8 -4.91477322602260 -5.59130966926693  0.16205671227123
 6 -3.91195492089209 -3.35705626482648  0.47828247544755
 6 -3.33839735063506 -3.56454262976298  1.83551326432643
 8 -3.77371261136114 -3.73665039983998  3.06200487028703
 8 -1.94218589348935 -3.70663696899690  1.56367630683068
 6 -1.08117663976398 -4.07138222832283  2.70202462766277
 6  2.97639953275328 -2.19510468736874 -1.41533277737774
 6  4.24009777717772 -1.33853085418542 -1.00723625592559
 6  5.19305006040604 -1.00266713811381 -1.90419662126213
 6  5.30048403220322 -1.78006114081408 -3.31730871307131
 6  6.28543236783678 -0.00321797469747 -1.45784234273427
 6  7.49158785278528 -0.84526030813081 -0.71162790009001
 6  8.57520008030803  0.23091872647265 -0.46786526702670
 6  9.82565565496550 -0.55029194949495  0.01712340664066
 6  9.52195971227123 -1.21737055175518  1.38971334013401
 6  10.98775110511051  0.43058791299130  0.00537537593759
 6  12.38981425192519 -0.26237493029303  0.13693200440044
 6  13.63460500310031  0.71543881858186  0.43139603800380
 6  14.96432276747675 -0.05563228512851  0.50330499259926
 6  15.07784277237724 -1.05860814131413  1.62192211621162
 6  16.08811844024402  1.16459136113611  0.55801900720072
 6  17.49466894499450  0.46073129752975  0.31739486558656
 6  18.32421196859686  1.87966515771577  0.00414026722672
 6  19.71427362846284  1.46355485028503 -0.37275735943594
 6  19.76679648094809  0.81156658695870 -1.78680447164716
 6  20.63202037093710  2.68698011601160 -0.19680477637764
 1 -3.48364900320032  3.83545479647965  0.96320572227223
 1 -10.19949393189319  4.07598668376838 -0.40467410131013
 1 -10.09460195179518 -2.20440083938394 -0.67544036993699
 1 -2.39950246704670 -0.92423004080408  2.00944099239924
 1 -2.13239257785779  1.77094757095710  0.58607506090609
 1 -1.25599698339834  1.23849216361636  2.81432214331433
 1 -2.43570174407441  2.32933150955096  2.68811492929293
 1 -2.70736306880688  0.90338822412241  3.44938080718072
 1 -1.82519153945395 -1.67694896789679 -0.71761954875488
 1 -1.41169633863386 -0.23737521042104 -1.02095188598860
 1  0.09236723502350 -0.23634506780678  0.94473033823382
 1 -0.15936965676568 -2.19352568636864  0.41715194729473
 1 -4.45488001840184  5.52115994389439  0.07895285298530
 1 -5.56604688528853  6.62074475037504  1.05154206030603
 1 -4.76691771997200  5.88828778977898  2.02758053035303
 1 -9.15119813391339  5.89810491969197 -0.36908328412841
 1 -12.47613716731673 -1.41639250675068  0.07933350615061
 1 -12.84189040404040  0.09293569336934 -1.09096673307331
 1 -12.89353717681768 -2.24030614601460 -2.73330044714471
 1 -12.28781574537454 -0.33764634313431 -3.08546071557156
 1 -11.38498532293229 -2.47298061506151 -2.17236384378438
 1 -8.62777196049605 -4.95125168076808 -1.66657888588859
 1 -7.75363057765777 -5.81388140074007 -0.35313496539654
 1 -9.20057733773377 -4.27074903610361  0.01466607610761
 1 -3.33285286668667 -3.89961368626863 -0.29392769956996
 1  3.14081569696970 -3.13448072187219 -1.08218393549355
 1  2.77250153895390 -1.92749866486649 -2.31380161546155
 1  4.17394472217222 -0.85373812221222 -0.17443384178418
 1  4.55178823582358 -1.56945041754175 -3.82198231323132
 1  5.95194877327733 -1.62578125352535 -3.96771799569957
 1  5.20884471187119 -2.93057567186719 -3.01055523932393
 1  6.91198162006201  0.55759109650965 -2.49355197239724
 1  5.83260837023702  0.83555910371037 -0.87241150455046
 1  7.02993417231723 -1.12790098719872  0.16760848244825
 1  7.85765116351635 -1.75115390569057 -0.98579805570557
 1  8.96558869026903  0.95123571837184 -1.47632041734174
 1  8.30392889098910  0.95547073527353  0.42956866526653
 1  9.93689613671367 -1.25233267696770 -0.57057421502150
 1  8.99944218851885 -2.25926474217422  1.31093945474547
 1  10.34746081548155 -1.41399528072807  1.70865275667567
 1  9.20185339693970 -0.47292851525153  2.18500980608061
 1  10.96760039783978  1.23313607350735 -0.52645981758176
 1  10.94206395299530  0.76890576617662  1.04275815611561
 1  12.23241078327833 -1.01741418091809  1.10547423072307
 1  12.34088624262426 -0.75169338993899 -0.76033903140314
 1  13.50491536153615  1.53494303930393 -0.35656456105611
 1  13.40718276307631  1.16701095239524  1.13829961936194
 1  15.24402582838284 -0.85973348934894 -0.50207839903990
 1  14.55807570747075 -0.86199580408041  2.81895466846685
 1  14.56464373787379 -2.10206787868787  1.52839033713371
 1  16.27300433353335 -1.44449803290329  1.53974045174517
 1  15.90100123502350  1.60784077747775 -0.31100107480748
 1  16.12595662826283  1.45003453895389  1.56135445864586
 1  18.00115143024302 -0.35397222662266  1.06461664836484
 1  17.75090261446145 -0.19706153695370 -0.76804818221822
 1  17.87303231033103  2.45416196399640 -0.75783877217722
 1  18.18403839994000  2.54853876077608  1.06303297379738
 1  19.87490005120512  0.73629647584758  0.57063041384138
 1  19.37950626862686  1.55793084268427 -2.84122624782478
 1  20.79218350835083  0.27751594979498 -1.77834196759676
 1  19.09828255525553  0.06920920252025 -2.00473854855486
 1  20.54935171377138  3.21308088718872  0.96095684928493
 1  21.64008174847485  2.48114469716972 -0.33657637263726
 1  20.91191784468447  3.84421190839084 -1.07812260856086
 1  0.04200857575758 -3.87218996839684  2.06503485148515
 1 -1.29578925992599 -4.94448172187219  2.96378701530153
 1 -0.63020703400340 -3.37831630873087  3.20208436163616
 8 -12.03105147944794  3.54376917611761 -0.70688250195019
 1 -12.60179069056906  1.81283252335233 -1.14867547254725

