%nproc=4
%Mem=2GB
# td=(NStates=1) iop(3/107=0140000000,3/108=0140000000) iop(3/107=0140000000,3/108=0140000000) CAM-B3LYP/6-31G(d,p) 

TD

0 1
12 -6.75088766086609  0.59764890899090  0.20232785228523
 6 -4.61335844234423 -2.08438686048605  0.46027630463046
 6 -4.12280409580958  2.87286891999200  0.72352523412341
 6 -8.97083978867887  3.30062408650865 -0.23157265896590
 6 -9.19444754235424 -1.77044007360736 -0.63185324402440
 7 -4.79171424332433  0.38037743544354  0.66720575267527
 6 -3.91161842744274 -0.84803451025102  0.74655521092109
 6 -2.52509592819282 -0.56503826302630  1.14787684998500
 6 -2.42911287708771  1.02573272207221  1.28160032253225
 6 -3.83536979987999  1.45699578477848  0.90930570527053
 6 -2.21995828152815  1.45068686458646  2.64713927672767
 6 -1.53788253665367 -1.02296485988599 -0.10340901460146
 6 -0.14303242154215 -1.27304901150115  0.26684575807581
 6  0.77858893809381 -1.46215345224522 -0.74014218801880
 8  0.67855792389239 -1.13469608210821 -1.90589157935794
 8  1.76444673127313 -2.41106140474047 -0.39312423492349
 7 -6.49126086828683  2.62582295229523  0.17092083998400
 6 -5.31891245214521  3.33621226442644  0.37777407360736
 6 -5.77307152235224  4.67479716451645  0.52671754035404
 6 -7.08938965236524  4.87658374887489  0.21738832213221
 6 -7.64334603850385  3.47230603900390  0.09608443984398
 6 -4.85228014831483  5.92917034753475  0.74773244124412
 6 -7.94436599789979  6.14515143524352  0.25596512021202
 8 -7.42367628382838  7.21649326592659  0.66399425622562
 7 -8.92894644814481  0.70669152835284 -0.21940458955896
 6 -9.62429610201020  1.85921065636564 -0.31494254655466
 6 -10.88812544284428  1.59494936603660 -0.71617739893989
 6 -11.03002736023602  0.21025192959296 -0.91709256475648
 6 -9.68114977827783 -0.36692485568557 -0.56771884858486
 6 -11.88878565386539  2.51963815691569 -1.17792244304430
 6 -12.19606272677268 -0.53319688198820 -1.34596272997300
 6 -12.00883774587459 -0.69194135933593 -2.87058985368537
 7 -7.05238172107211 -1.40643320462046  0.00125748124812
 6 -8.13444610621062 -2.19528952565257 -0.41462466046605
 6 -7.61960954605461 -3.70469779217922 -0.35978698879888
 6 -6.20296591779178 -3.58448760966097 -0.03112137273727
 6 -5.91895818451845 -2.19779859435944  0.15500168446845
 6 -8.61543006650665 -4.80981835963596 -0.57332014791479
 6 -5.05275147964796 -4.50041583968397  0.23440146584658
 8 -4.88391013971397 -5.69225976427643  0.03510401700170
 6 -3.79674339973997 -3.45658621782178  0.51522616981698
 6 -3.31941545244524 -3.71426760226023  1.75164487748775
 8 -3.79597483758376 -3.80323705850585  2.88974764456446
 8 -2.05594726962696 -3.74750105540554  1.61720165936594
 6 -1.29363788588859 -4.05228031813181  2.92735716091609
 6  2.91760365316532 -2.24512968986899 -1.38551979607961
 6  4.03166693409341 -1.32956995809581 -0.89381491379138
 6  5.05552630803080 -1.08073494489449 -1.69077527912791
 6  5.12561654545455 -1.62417555225523 -2.97276425862586
 6  6.01611543614361 -0.17700535343534 -1.22169872837284
 6  7.34773346734673 -0.67056283838384 -0.64050078737874
 6  8.52242480278028  0.31164679927993 -0.39749823032303
 6  9.80872396179618 -0.28668558885889 -0.10660896659666
 6  9.60525804210421 -1.16134494919492  1.24757912671267
 6  10.89704203420342  0.64330918511851 -0.00813597519752
 6  12.22266753725373  0.01626293349335  0.36837514871487
 6  13.43364490709071  1.21011828652865  0.31704460286029
 6  14.72062839803981  0.27923120122012  0.56281094319432
 6  14.97417240534053 -0.18594087458746  2.06867679167917
 6  15.87306693509351  1.30176507850785  0.08435164046405
 6  17.38621809990999  0.72620784518452  0.01883500960096
 6  18.42008155555556  1.85178236943694 -0.28530867766777
 6  19.81934413551355  1.30795929072907 -0.56032611631163
 6  19.92061186248625  0.49006443674367 -1.69558534973497
 6  20.93861103000300  2.39073049104911 -0.46033112901290
 1 -3.09175981428143  3.51539279027903  0.98057745944594
 1 -9.64879886238624  3.93147223232323 -0.13701733563356
 1 -9.95227771937194 -2.13912431173117 -0.95729855575558
 1 -2.12081459825983 -1.16110372817282  2.17584763306331
 1 -1.55022436103610  1.47900837703770  0.38751520492049
 1 -0.93936532023202  1.30744905930593  3.15646635773577
 1 -2.90421859575958  2.64792336873687  2.93238935673567
 1 -2.73872620512051  0.99429731503150  3.39503537263726
 1 -1.97231625192519 -1.65778705170517 -0.71817960476048
 1 -1.80083525252525  0.01629015611561 -0.78884867566757
 1  0.53848184648465 -0.50432186548655  0.99455532073207
 1 -0.22791651145114 -2.27212354615462  0.93891412351235
 1 -3.87937246764676  5.67367519541954  0.25767072477248
 1 -5.24289457005700  6.93008568446845  0.52491939803980
 1 -4.93900492869287  6.03975293629363  1.89966773907391
 1 -8.94888790289029  6.15858096729673 -0.25531190699070
 1 -12.35950550415041 -1.38036890439044 -0.97759218641864
 1 -13.20655687068707 -0.26216981718172 -1.16024366076608
 1 -12.94773259635964 -0.69984209960996 -3.15476259335934
 1 -11.46699366316632  0.22376979847985 -3.12805497499750
 1 -11.09261608600860 -1.28669198619862 -3.42411901930193
 1 -9.63681286458646 -4.59010556615662 -1.50709293729373
 1 -8.16176139073908 -5.91246125872587 -0.77321697359736
 1 -9.27670495049505 -5.02965492669267  0.27101171067107
 1 -2.93527310871087 -3.80649437433743 -0.12092039883988
 1  3.27738935433543 -3.31106838063806 -1.63558927602760
 1  2.82860714951495 -1.65459137413741 -2.49061929722972
 1  4.15983331103110 -0.85048779717972  0.01029463106311
 1  4.37378043504350 -1.42800627312731 -3.53179329432943
 1  5.95853943234324 -1.44280295569557 -3.41417264116412
 1  5.32874670207021 -2.72259487378738 -2.96426060986099
 1  6.33539396129613  0.29984532193219 -2.17241985918592
 1  5.36353146254625  0.49295484328433 -0.41532579597960
 1  7.33061424032403 -1.35696389348935  0.08017973957396
 1  7.83018841724172 -1.40589938023802 -1.71662113801380
 1  8.47944007540754  1.00438103290329 -1.20148293359336
 1  8.20188868696870  0.85653084128413  0.50166587498750
 1  9.77222967006701 -1.14573201690169 -0.83071022862286
 1  8.66031827612761 -1.59399821552155  0.96500486128613
 1  10.37312338173817 -1.91926580778078  1.31530342174217
 1  9.98877208880888 -0.53239446184619  2.38510981608161
 1  10.81089472727273  1.34356711661166 -0.83160033163316
 1  10.68340808740874  1.73759263486349  0.71088496879688
 1  12.25333287548755 -0.66367880738074  1.03812749604961
 1  12.39290144414441 -1.01962018261826 -0.49816281378138
 1  13.72318718871887  1.60506005100510 -0.66419532413241
 1  13.26859890469047  2.03700795209521  1.48202399179918
 1  14.79404082988299 -0.60526804280428  0.04083589238924
 1  15.17959785968597  0.70566096159616  2.88140091309131
 1  13.90756803030303 -0.79238691059106  2.88721621972197
 1  15.76990402350235 -0.79545312841284  1.96611308900890
 1  15.85047618251825  1.77712770617062 -0.64518449314932
 1  16.19974400700070  2.15928546404641  0.63576189938994
 1  17.53890520562056  0.11952512311231  1.09468965566557
 1  17.85266279047904  0.03384155335533 -0.96093747114711
 1  18.07400240734074  2.62513906170617 -0.81808479677968
 1  18.45396539263927  2.39445335223522  0.55420209070907
 1  19.84208676987699  0.67366021222122  0.22543589438944
 1  19.99651796979698  1.08184323392339 -2.55488761396140
 1  20.85477976797680  0.26709490769077 -1.69896402980298
 1  19.20271299829983 -0.31496921532153 -1.82495056975698
 1  21.08580535913591  3.49434901400140  0.23569432303230
 1  21.65415315561556  2.04759134183418 -0.31751446644664
 1  20.77091374427443  2.88608609580958 -1.46612140844084
 1 -0.53372899799980 -4.68261101050105  2.30197854585458
 1 -1.87928760976098 -4.61434870857086  3.39982061866187
 1 -1.10450446374637 -3.24853333043304  3.78014216741674
 8 -11.67669604390439  3.77199199839984 -1.12926474017402
 1 -12.80593110461046  2.27298853895389 -1.90582118711871

