%nproc=4
%Mem=4GB
# td=(NStates=1) iop(3/107=0140000000,3/108=0140000000) iop(3/107=0140000000,3/108=0140000000) CAM-B3LYP/6-31G(d,p) 

TD

0 1
12 -5.60041154775478  1.25819069336934  0.16845545074507
 6 -4.90382076927693 -2.18136659996000 -0.40891775857586
 6 -3.30942973207321  1.08567885268527  2.74158953225323
 6 -6.01083987968797  4.52308557275728  0.57172738153815
 6 -7.98243401050105  1.25132598329833 -2.35375304880488
 7 -4.31284553785379 -0.34479267106711  1.03407474627463
 6 -4.27832135963596 -1.68472217381738  0.68028037763776
 6 -3.30809393389339 -2.36473977677768  1.53709807350735
 6 -2.92503567456746 -1.38130102100210  2.70338689478948
 6 -3.54009143654365 -0.09152177987799  2.13177776297630
 6 -3.68774181358136 -1.75739918131813  3.96196889628963
 6 -2.05259045224522 -2.87999540884088  0.70592589808981
 6 -0.99985162866287 -3.53340092069207  1.45308889688969
 6  0.18520362086209 -3.88267210791079  0.57526572127213
 8  0.45177524182418 -3.38068538213821 -0.47897413161316
 8  1.02437928362836 -4.71957157445745  1.20986559385939
 7 -4.72197301360136  2.52356173307331  1.40430066176618
 6 -3.84816690649065  2.37781520322032  2.44194479777978
 6 -3.65295479917992  3.61639014121412  3.20783133933393
 6 -4.38633918661866  4.53249477777778  2.61556082738274
 6 -5.13130923512351  3.83353144834483  1.44666075837584
 6 -2.69099446254625  3.77945532133213  4.29986417581758
 6 -4.66918344894489  5.95892331283128  2.97508701350135
 8 -4.14780482848285  6.56931481948195  3.84848874877488
 7 -6.75601940184018  2.71035093089309 -0.73324498079808
 6 -6.83939665446545  3.99211882908291 -0.41015270397040
 6 -7.85624081048105  4.68593531833183 -1.33827793729373
 6 -8.30925037833783  3.60407733763376 -2.10109905430543
 6 -7.60828971947195  2.42608861766177 -1.81275722222222
 6 -8.28499149004901  6.00536044544454 -1.23490299909991
 6 -9.40599496279628  3.82327272547255 -3.13217785058506
 6 -8.84314576827683  4.31529967616762 -4.51177758175818
 7 -6.32927134613461 -0.15680069776978 -1.15747083908391
 6 -7.34548407800780 -0.03645971457146 -2.05527973867387
 6 -7.55039254645465 -1.30697240084008 -2.71686420902090
 6 -6.66299584838484 -2.13352292409241 -2.09140530623062
 6 -5.93891230663066 -1.40858442354235 -1.04101023142314
 6 -8.33806926472647 -1.56219634563456 -3.94023091929193
 6 -6.21368503560356 -3.52775835973597 -1.99030258535854
 8 -6.60201459695970 -4.58276597499750 -2.53068933403340
 6 -5.16057461956196 -3.60287834043404 -0.79664198399840
 6 -5.50416789418942 -4.69349479057906  0.19130280208021
 8 -5.90524629622962 -4.44608361646165  1.28335469886989
 8 -5.07889758795880 -5.91154235063506 -0.24727787238724
 6 -5.42766033023302 -6.96745859915992  0.74774660446045
 6  2.28902987618762 -4.98944006420642  0.55015897029703
 6  3.42729726472647 -4.02020218111811  0.94026192599260
 6  4.06822621282128 -3.17230010011001  0.10635427042704
 6  3.59769410831083 -3.08740368166817 -1.33548305280528
 6  5.18242466826683 -2.46624167176718  0.58430222902290
 6  6.54029890119012 -2.62946587178718 -0.04856338893889
 6  7.60415573917392 -1.85334468996900  0.55434112461246
 6  9.00374119541954 -2.04285911951195 -0.09963774627463
 6  9.56127250895089 -3.35507614801480  0.09529607190719
 6  9.93305388448845 -0.92703294069407  0.43409592509251
 6  11.37072437483748 -0.94527413431343 -0.25586435263526
 6  12.23603129172917  0.19463409090909  0.24642148974897
 6  13.48068052385239  0.46122099199920 -0.58403316651665
 6  14.50997929692969 -0.76966636923692 -0.30553470437044
 6  14.18317425702570  1.73588976057606 -0.17802705750575
 6  15.42128631903190  2.10469849804980 -0.98171316631663
 6  16.00137272167217  3.51804655745575 -0.62071268446845
 6  17.27219246834683  4.01067890949095 -1.35471940714071
 6  17.11828441814181  4.26626151785179 -2.87410963516352
 6  17.63441284738474  5.30121538683868 -0.77628708760876
 1 -2.85713143594359  1.01393566896690  3.59039950835084
 1 -6.19311729052905  5.58038341874187  0.76964595629563
 1 -8.88744915211521  1.16344664756476 -3.13418889768977
 1 -3.55159622442244 -3.39185450085008  2.07130519131913
 1 -1.75516264016402 -1.09674733633363  2.71285256135614
 1 -3.29519929902990 -2.86422958415842  4.07380092409241
 1 -3.29864065676568 -1.08669857425743  4.78390041984198
 1 -4.75532804450445 -1.59993907480748  3.69785373587359
 1 -2.58173348704871 -3.36099561686169 -0.11926255005501
 1 -1.58891672407241 -1.96566568286829  0.24105222682268
 1 -0.79613504700470 -2.80980227582758  2.37632185088509
 1 -1.43065778737874 -4.43545067626763  1.90567236523652
 1 -1.65685579937994  3.82812233663366  3.82240815051505
 1 -3.12596358645865  4.88094530053005  4.91429768746875
 1 -2.71914490949095  2.92147314481448  5.05539054505451
 1 -5.34522758665867  6.41944613901390  2.38368368976898
 1 -9.99678881238124  2.87750840794079 -3.27892114381438
 1 -10.12413321122112  4.58843268736874 -2.60618090879088
 1 -9.64196399619962  4.56485489948995 -5.24119932223222
 1 -8.16532604200420  5.24593433883388 -4.30966092109211
 1 -8.38050789978998  3.29040839963996 -4.91646157095710
 1 -7.52365995559556 -1.21796233913391 -4.70848184648465
 1 -8.45248623162316 -2.72527593269327 -3.92074471147115
 1 -9.40437051655165 -1.16475329872987 -3.85276218291829
 1 -4.20444780218022 -3.99954478107811 -1.39862314921492
 1  2.43852498549855 -5.99644758775878  0.95222117901790
 1  2.21698244164417 -4.99340631673167 -0.37874132373237
 1  3.74074619691969 -3.84325360716072  2.00434544214421
 1  2.44607959465947 -3.15750137123712 -1.50722326332633
 1  3.80825543884388 -2.11513507280728 -1.62079454995500
 1  4.30876305030503 -3.61317504670467 -1.97336626252625
 1  5.13148318921892 -1.36427285128513  0.32898478197820
 1  5.21590011731173 -2.49745137753775  1.67104198449845
 1  6.89523705040504 -3.60698389048905  0.18411629562956
 1  6.40894105450545 -2.61997960696070 -1.08422901840184
 1  7.33456238753875 -0.71594491959196  0.61360860636064
 1  7.53052515541554 -1.99944652775278  1.67291167646765
 1  8.80119422872287 -1.93830210541054 -1.19543288138814
 1  8.75181970067007 -4.21799057045705 -0.14834862726273
 1  10.55452479327933 -3.46682088418842 -0.32359247274727
 1  9.79187824922492 -3.59551064256426  1.22632307500750
 1  9.37661681228123  0.00317604380438  0.30339570337034
 1  9.92914301180118 -0.91683821772177  1.65275481548155
 1  11.83487862916292 -1.80745077697770 -0.03107748094809
 1  11.36196228292829 -0.76269917481748 -1.43177451105111
 1  11.53965499899990  1.17429185838584  0.19610005480548
 1  12.51741656495649  0.28511970337034  1.31673995419542
 1  13.25483228392839  0.49041347364736 -1.51995423412341
 1  14.87760709900990 -0.85625383808381  0.69315499549955
 1  14.09226479747975 -1.57489650595060 -0.65947226872687
 1  15.35042603100310 -0.54392759095910 -0.94006089858986
 1  13.45214340854085  2.36660127922792 -0.01240302800280
 1  14.48330503080308  1.68942923212321  0.84620183408341
 1  16.24805646144614  1.46799541224122 -0.57408389908991
 1  15.44690027342734  2.12496640944094 -2.09040041974197
 1  15.31573297789779  4.14868024602460 -0.85077707580758
 1  16.15582835293529  3.45706234763476  0.49802970337034
 1  17.87708138953895  3.24882637383738 -1.32239131873187
 1  16.43872459285928  5.15426195509551 -3.12471483128313
 1  18.03693961746175  4.66071558485849 -3.34230883598360
 1  17.02781298149815  3.27376844684469 -3.39543757835784
 1  18.10830687788779  5.26564778227823  0.25343700790079
 1  18.53960148244824  5.73668782098210 -1.34872178657866
 1  16.97495904680468  6.06241574467447 -0.76473053435344
 1 -5.22467776917692 -7.85015444854485  0.12705916821682
 1 -6.53506793709371 -6.85885297189719  0.80648415591559
 1 -4.95556372497250 -6.94464604020402  1.77125158175818
 8 -7.77818541014101  6.78148464926493 -0.45001278527853
 1 -9.36061435853585  6.33973961886189 -1.60541622442244

