%nproc=4
%Mem=4GB
# td=(NStates=1) iop(3/107=0140000000,3/108=0140000000) iop(3/107=0140000000,3/108=0140000000) CAM-B3LYP/6-31G(d,p) 

TD

0 1
12 -5.67080858745875  1.24220909520952  0.14919352455246
 6 -5.02714310151015 -2.09197766106611 -0.34448131493149
 6 -3.54422321142114  1.14398468326833  2.85977135043504
 6 -6.20472926862686  4.65594885908591  0.71029123792379
 6 -7.88591435853585  1.18467931863186 -2.43786145964596
 7 -4.49291354465447 -0.32161035283528  1.09855119391939
 6 -4.24633816131613 -1.63782748434843  0.71039338893889
 6 -3.17101022552255 -2.33238654145415  1.54675903960396
 6 -2.99980315131513 -1.23605649654966  2.68815537163716
 6 -3.70706813421342 -0.03220584828483  2.14580916611661
 6 -3.51925496489649 -1.76977041844184  3.96738943834383
 6 -1.97562275547555 -2.72330974027403  0.64887019251925
 6 -0.87650929442944 -3.39889747034703  1.52831641964196
 6  0.26482158265827 -3.86971081178118  0.74538273297330
 8  0.39573963826383 -3.40048736233623 -0.40897713191319
 8  1.02199904560456 -4.72884250155015  1.35987059435944
 7 -5.01712252855286  2.58748812571257  1.47281751345135
 6 -4.08613070287029  2.43573099479948  2.51461206450645
 6 -3.86399590329033  3.58697719991999  3.26336689288929
 6 -4.64121467416742  4.59707123542354  2.68239751105111
 6 -5.40226633083308  3.95410350555056  1.59615570787079
 6 -2.84623998709871  3.81086846264626  4.38380256965697
 6 -4.79179571017102  5.95967338783878  3.08524802960296
 8 -4.30282033003300  6.57345523352335  3.98694259415942
 7 -6.85563936383638  2.63940383618362 -0.75276693299330
 6 -6.92566528132813  4.00003962116212 -0.38217990669067
 6 -7.76096128252825  4.59209593439344 -1.29051316081608
 6 -8.35443489678968  3.58400533043304 -2.13458240264026
 6 -7.73627251775178  2.33785979477948 -1.74644059055906
 6 -8.23904689558956  6.00534044344434 -1.20269977877788
 6 -9.35312967626763  3.80303070127013 -3.16410104290429
 6 -8.69661111481148  4.05801394759476 -4.65384178817882
 7 -6.35251367036704 -0.06465148284828 -1.04072916491649
 6 -7.34560409000900 -0.02266833543354 -2.10837504820482
 6 -7.46339384658466 -1.28570027362736 -2.81684420702070
 6 -6.61729127792779 -2.14013358515852 -2.08668483418342
 6 -5.97967638303830 -1.36752031713171 -1.05644177457746
 6 -8.46184164196420 -1.65073519951995 -3.86602349854985
 6 -6.10327399449945 -3.58379396329633 -2.05928948404841
 8 -6.46027042254225 -4.58519621802180 -2.66041230633063
 6 -5.10047860996100 -3.52981103370337 -0.94995731553155
 6 -5.41677915531553 -4.54160960206021  0.08883255505551
 8 -5.89108488008801 -4.41662067016702  1.24952131553155
 8 -5.06463616181618 -5.79274047044704 -0.37393053765377
 6 -5.48256582078208 -6.88180003330333  0.30829265906591
 6  2.26536750995100 -5.12728384858486  0.60953490789079
 6  3.45172970797080 -4.17314747564757  0.99773767356736
 6  4.14975436563656 -3.38425129522952  0.24223785878588
 6  3.79037337623762 -3.07991293259326 -1.16041554605461
 6  5.29820624642464 -2.55499054665467  0.88368216701670
 6  6.63733860516052 -2.73722664786479  0.03007447484748
 6  7.75408073167317 -1.91758111361136  0.56234192469247
 6  9.07726854815482 -2.13494832843284 -0.02725050755076
 6  9.67551393309331 -3.48456909730973  0.14126066836684
 6  10.01699227832783 -0.97001723912391  0.32474498999900
 6  11.41365866826683 -0.88718832573257 -0.29918868506851
 6  12.18516620522052  0.33182781028103  0.07414426202620
 6  13.54557701350135  0.48796366626663 -0.64897966116612
 6  14.54374267326733 -0.73426282888289 -0.55476962786279
 6  14.29120506010601  1.80948712031203 -0.22328158295830
 6  15.48192238263826  2.15686371457146 -1.09337433243324
 6  16.08256084048405  3.50326507930793 -0.73127374057406
 6  17.32170741984199  3.94256209780978 -1.46220015521552
 6  17.03800639033903  4.10361525322532 -2.84909713391339
 6  17.93931333743374  5.23373863916392 -0.74883434233423
 1 -2.86567229002900  1.24656893229323  3.65155562396240
 1 -6.28544652345234  5.77683306370637  0.70428942064206
 1 -8.63379378657866  1.25503580648065 -3.36003148194819
 1 -3.75466653145314 -3.09245456085609  2.06892495329533
 1 -2.02649977387739 -0.99321698329833  2.88233951005100
 1 -2.75878565766577 -2.65437859905991  4.17715125912591
 1 -3.31273206590659 -0.86294619901990  4.68200022982298
 1 -4.44868738043804 -2.05336441734173  4.02698664916492
 1 -2.29836515021502 -3.29132865016502 -0.08889951375138
 1 -1.42267009940994 -1.79309842614261  0.34432255385539
 1 -0.45739117261726 -2.50049134473447  2.30123434213421
 1 -1.39170389198920 -4.37918504970497  1.86962876087609
 1 -1.88015812961296  3.76530605500550  3.95366127582758
 1 -2.97353834393439  4.80284749074907  4.64054031173117
 1 -3.06821981698170  2.90113111061106  5.13605861186119
 1 -5.50298336223622  6.37256145054505  2.45958127952795
 1 -10.03168230173017  2.99921057815782 -3.30863411511151
 1 -9.95454625252525  4.70957480158016 -2.98921921262126
 1 -9.40697049684969  4.03606202020202 -5.47872307460746
 1 -8.19526903630363  5.06932667806781 -4.69564951995199
 1 -8.00709055805580  3.05616497529753 -4.82984290909091
 1 -8.14684227382738 -0.93919446234623 -4.68522952125212
 1 -8.45307629062906 -2.71998540364036 -4.27017965496550
 1 -9.48746882638264 -1.40327715111511 -3.46538344504450
 1 -4.07238459585959 -3.83180800740074 -1.40986427332733
 1  2.46095722872287 -6.09637758075807  0.89027498439844
 1  2.35803654705471 -4.95656263236324 -0.43208665826583
 1  3.88250037233723 -4.34699398119812  2.14772978057806
 1  2.71861684838484 -3.47833345444544 -1.34437697869787
 1  3.86415102840284 -2.00688424772477 -1.42816528702870
 1  4.45838801280128 -3.47951168036804 -1.87025595149515
 1  5.00548058895890 -1.59319574357436  0.80414229772977
 1  5.44843337063706 -2.75716734913491  1.89808468876888
 1  6.91138866556656 -3.78661185328533 -0.11583369936994
 1  6.46986714711471 -2.47928553755376 -1.07796839233923
 1  7.42628155945595 -0.82598592369237  0.79371661716172
 1  7.73138524142414 -2.02761934503450  1.68594297959796
 1  9.15506961626163 -2.10768904410441 -1.14923826192619
 1  8.96378089678968 -4.23021179257926 -0.18173196559656
 1  10.42783212401240 -3.72828703080308 -0.59005911941194
 1  9.96794585598560 -3.56801789328933  1.20979142184218
 1  9.61343049364937 -0.04108838263826  0.16337170097010
 1  10.12024212171217 -0.91127766166617  1.35795533553355
 1  12.05535067636764 -1.65114514641464  0.08852447924792
 1  11.49842592929293 -1.05376828172817 -1.43961529512951
 1  11.47856889038904  1.31840626982698 -0.05699525472547
 1  12.38573339663966  0.17974916631663  1.14892317251725
 1  13.37684448514851  0.61851628392839 -1.61730396909691
 1  14.53768310661066 -1.10393860656066  0.54252993299330
 1  14.32152772377238 -1.77862687898790 -0.97713403490349
 1  15.62064305270527 -0.65075827402740 -0.98385527802780
 1  13.53773196739674  2.65162978207821 -0.34025581328133
 1  14.58220492079208  1.75101539073907  0.97981519541954
 1  16.32721437723772  1.46198481118112 -1.00780727142714
 1  15.43180876427643  2.45115902870287 -2.26327770747075
 1  15.25681708630863  4.25017039503950 -0.54259625772577
 1  16.41703447354736  3.46791343274327  0.39299920032003
 1  17.98519220062006  2.96868836003600 -1.52517159675968
 1  16.19987070747075  4.67732426132613 -3.03330569036904
 1  17.77541346484649  4.55572508580858 -3.63052765786579
 1  16.80738093829383  3.04440551055106 -3.11540957555756
 1  18.16319236643664  5.09739095659566  0.37115878007801
 1  18.94126164846485  5.45510966316632 -1.37050396479648
 1  17.18390994189419  6.07680718381838 -0.93082714401440
 1 -5.39101440284028 -7.92047148024802 -0.24668820652065
 1 -6.66749117941794 -6.89565665226523  0.63877738523852
 1 -5.01834000260026 -6.86698827442744  1.16467092369237
 8 -7.69055664726473  6.80392689348935 -0.50903868786879
 1 -9.03316161326133  6.36428207310731 -1.89256493929393

