%nproc=4
%Mem=4GB
# td=(NStates=1) iop(3/107=0140000000,3/108=0140000000) iop(3/107=0140000000,3/108=0140000000) CAM-B3LYP/6-31G(d,p) 

TD

0 1
12 -5.67895940254025  1.26721159545955  0.30668927412741
 6 -5.00089047624762 -2.15535399869987 -0.42009887668767
 6 -3.59391818091809  1.18736902170217  2.85419079237924
 6 -6.15060385608561  4.59188245244524  0.62873308210821
 6 -8.17537330443044  1.11863271397140 -2.30569824332433
 7 -4.44222847614761 -0.30618881068107  1.03925526432643
 6 -4.31411493899390 -1.56380008160816  0.69666201580158
 6 -3.29212233673367 -2.29127243004300  1.54851921562156
 6 -2.86731990299030 -1.24519741064106  2.57644420052005
 6 -3.67936536393639 -0.01926455415542  2.18921350655066
 6 -3.34811785118512 -1.71850529192919  3.98707140654065
 6 -1.93212840604060 -2.67421483078308  0.76479178467847
 6 -1.06374801830183 -3.71307888848885  1.44401798979898
 6  0.23022812331233 -3.98769260996100  0.63734192889289
 8  0.42643270757076 -3.34587190079008 -0.41925816001600
 8  1.02676952265227 -4.83046266356636  1.22231683898390
 7 -4.99375019131913  2.62286166306631  1.53054328602860
 6 -4.12846493629363  2.40748817051705  2.53495409870987
 6 -3.84542404610461  3.72184068626863  3.25912646884688
 6 -4.70317086978698  4.60812234053405  2.62088135943594
 6 -5.27238334253425  3.97499559475948  1.39394548684869
 6 -2.84143950705071  3.85948332413241  4.30215440484048
 6 -4.77502403300330  6.09288670917092  2.98313781858186
 8 -4.10370041804180  6.60779866786679  3.76339023892389
 7 -6.89745354525453  2.56124602040204 -0.72953460976098
 6 -6.97288000280028  3.87187680488049 -0.39228091679168
 6 -7.99355454185419  4.52068879367937 -1.11266537603760
 6 -8.46789624292429  3.66752368226823 -2.06624556895690
 6 -7.86132502300230  2.37979398819882 -1.75786173267327
 6 -8.24353734463446  5.99908981838184 -1.27409691849185
 6 -9.35029939323933  3.91509190739074 -3.20490512331233
 6 -8.64068552225222  4.26773491969197 -4.50331673567357
 7 -6.33600201920192 -0.17845286298630 -1.05708080008001
 6 -7.38149767936794 -0.00293636223622 -2.07687189788979
 6 -7.52895040224022 -1.31285298889889 -2.67401992459246
 6 -6.64832438123812 -2.17699727152715 -2.09137530323032
 6 -6.00714913031303 -1.43687725282528 -1.15666179657966
 6 -8.40148560636064 -1.72551267726773 -3.80194709090909
 6 -6.31620528762876 -3.65389097299730 -1.97169072417242
 8 -6.52500689618962 -4.61638933733373 -2.54735100020002
 6 -5.03764232633263 -3.58609666226623 -0.84914723452345
 6 -5.34833231063106 -4.60262570367037  0.15964963676368
 8 -5.77541331293129 -4.48195720382038  1.22188855225523
 8 -4.88158785698570 -5.94003519991999 -0.29049219381938
 6 -5.15522308650865 -6.99297115041504  0.53645547534754
 6  2.27207818101810 -5.03495461566157  0.44561851625163
 6  3.48839337433743 -4.10508066896690  0.83173107290729
 6  4.10925031523152 -3.24563743384338  0.09005264026403
 6  3.77026136503650 -2.93653859515952 -1.26649615411541
 6  5.26763318911891 -2.47307235483548  0.76757055585559
 6  6.58818368966897 -2.65447837303730 -0.04422295489549
 6  7.64134945854585 -1.73224257975798  0.44690038053805
 6  9.01816263756376 -1.92136697029703 -0.19428721122112
 6  9.42221860356036 -3.31960260066007 -0.02117557525753
 6  10.06399697879788 -0.91391162856286  0.40714322982298
 6  11.34962226462646 -0.90704031093109 -0.35136390259026
 6  12.29499718831883  0.20945557305731  0.13421026862686
 6  13.62215467126713  0.42914778467847 -0.65786054925493
 6  14.54755305430543 -0.81652105470547 -0.38857300820082
 6  14.35043098269827  1.73311948354835 -0.08150740554055
 6  15.58564275467547  2.13592162036204 -0.84819981498150
 6  16.11587417181718  3.44033878667867 -0.50733134633463
 6  17.36500174927493  3.85963380498050 -1.30537447264726
 6  17.13989657935793  3.90971586328633 -2.84423664786479
 6  17.86761616771677  5.28353361866187 -0.81316077497750
 1 -2.95013073587359  1.05832010741074  3.81505197359736
 1 -6.46623460226023  5.58122350275027  0.72522151385139
 1 -8.80670107730773  1.13657396029603 -3.01698717751775
 1 -3.81449251405141 -3.12903821922192  2.16564462526253
 1 -1.69025614951495 -1.24837249884989  2.47229850595060
 1 -3.06444622372237 -2.76325948714872  3.85877942194219
 1 -2.84022481518152 -1.19311921632163  4.74450648044805
 1 -4.57476998869887 -1.49337841874187  4.08273222372237
 1 -2.17319263296330 -3.14527404470447 -0.11571219501950
 1 -1.44931276367637 -1.66860597689769  0.75134325592559
 1 -0.70958639213921 -3.26844814041404  2.37372159085909
 1 -1.46156087768777 -4.78540567176718  1.61349314731473
 1 -1.97228734253425  3.40936046044604  3.99802571227123
 1 -2.51869285938594  4.91784899089909  4.74541079877988
 1 -3.34413740874087  3.14467546504650  5.13984899089909
 1 -5.62840590449045  6.74784897929793  2.50549587098710
 1 -10.00759989348935  2.88984964206421 -3.48598184988499
 1 -9.84572537043704  4.79004284838484 -2.96513680438044
 1 -9.36489628942894  4.44510292429243 -5.47592279457946
 1 -8.08091760116012  5.22363210861086 -4.22444239923992
 1 -7.87811766076608  3.49530888968897 -4.88916884168417
 1 -8.10309789938994 -1.03779432233223 -4.59873087138714
 1 -8.39680066306631 -2.78677208230823 -3.95548818581858
 1 -9.48902898239824 -1.33228005140514 -3.63329023572357
 1 -4.27095445284528 -3.98222304890489 -1.43994728162816
 1  2.67619875287529 -6.13803174617462  0.40577653455346
 1  2.03838458185819 -4.90512748884889 -0.81517496709671
 1  3.67142926522652 -4.21575085688569  2.01233624122412
 1  2.80082506920692 -3.08853447454745 -1.67962050305031
 1  3.82945755905591 -1.75834939423942 -1.62295476597660
 1  4.51345351935193 -3.60843457265727 -1.95026395229523
 1  4.86492653355335 -1.27655407940794  0.82908479197920
 1  5.27808633593359 -2.80874250665066  1.71536641694169
 1  6.84194172087209 -3.62158535063506  0.25674355835584
 1  6.25167532793279 -2.34052166116612 -1.11413200870087
 1  7.27872680398040 -0.71562488758876  0.36170341584158
 1  7.68999110201020 -1.67233381648165  1.57303168846885
 1  9.05392950225023 -1.75936421162116 -1.19753309140914
 1  8.79251377007701 -4.00695946734673 -0.53836762916292
 1  10.35374471527153 -3.59658386048605 -0.59550966446645
 1  9.60217927932793 -3.66352744424442  1.06316675937594
 1  9.45415456605661 -0.05832010581058  0.21402676647665
 1  10.23553365086509 -0.90549708360836  1.53322286228623
 1  11.83374851615162 -1.95174520642064 -0.33377775097510
 1  11.20544663136314 -0.61608451335134 -1.53053438703870
 1  11.57830886438644  1.12746717591759 -0.03238279347935
 1  12.42642746604660  0.11512270367037  1.15853413361336
 1  13.33341014171417  0.53514794709471 -1.60540277897790
 1  14.72421175947595 -1.12031024372437  0.70288596859686
 1  14.20058562956296 -1.68763778007801 -0.85009133063306
 1  15.66649763816382 -0.82167536573657 -0.75150204270427
 1  13.57253544774477  2.47882250135013 -0.24302609030903
 1  14.35711241154115  1.60207049624962  1.04014122802280
 1  16.47401905770577  1.52041065376538 -0.39695618631863
 1  15.50620620402040  2.00189410221022 -2.16116749644964
 1  15.25891729632963  4.26141151915192 -0.57875987408741
 1  16.30149291939194  3.59638628002800  0.49472937333733
 1  18.16793047444745  3.27137862906291 -1.08541762136214
 1  16.25731645204520  4.35549207810781 -2.99209156895690
 1  18.03726965046505  4.47133664696470 -3.37488209330933
 1  17.21841204140414  2.70597166716672 -3.07909594419442
 1  18.05361140834083  5.28568978647865  0.33109477367737
 1  18.82856037833783  5.44468862106211 -1.12584949934993
 1  17.13344489538954  5.99127863096310 -1.02717677897790
 1 -4.81750705210521 -7.90347978107811 -0.18104164186419
 1 -6.13008743904390 -6.91033812041204  0.75950945844584
 1 -4.63533170177018 -7.00728230383038  1.45220967756776
 8 -7.73339093069307  6.90045654645465 -0.58602638663866
 1 -8.80970926802680  6.44299994489449 -2.24136981978198

