%nproc=4
%Mem=2GB
# td=(NStates=1) iop(3/107=0140000000,3/108=0140000000) iop(3/107=0140000000,3/108=0140000000) CAM-B3LYP/6-31G(d,p) 

TD

0 1
12 -6.71943451555156  0.66734587868787 -0.00974335483548
 6 -4.52478958545855 -1.99983840564056  0.45224550155015
 6 -4.18974078947895  2.61358299139914  0.93140602220222
 6 -8.66800950565057  3.20037406150615 -0.26720622232223
 6 -9.20958905650565 -1.61565459505951 -0.60309036773677
 7 -4.73760883278328  0.44531392909291  0.55930496259626
 6 -3.89605687128713 -0.92376208300830  0.65523607900790
 6 -2.43185660426043 -0.65812757195720  1.09337139943994
 6 -2.37708767456746  0.83110325912591  1.34400656315632
 6 -3.84017027992799  1.35467555275528  0.88043281798180
 6 -2.09802608830883  1.12370416631663  2.82735729852985
 6 -1.59274802320232 -1.04294685808581 -0.31156983068307
 6 -0.29588770707071 -1.38491019761976  0.28658773227323
 6  0.65477655685569 -1.41758899579958 -0.82439061286129
 8  0.60182025012501 -0.97741035353535 -1.92795378557856
 8  1.68710899749975 -2.18668896749675 -0.49560448294829
 7 -6.49079082128213  2.51204157415742  0.12494624252425
 6 -5.35516607750775  3.28056669986999  0.68093438963896
 6 -5.66408062326233  4.69237892269227  0.67316218481848
 6 -6.89792050545055  4.97691378187819  0.28932551585159
 6 -7.38339004290429  3.63416222462246  0.01984681608161
 6 -4.75712063236324  5.84527195769577  0.91779944794479
 6 -7.43917547884788  6.15318223832383  0.11557108080808
 8 -6.89491340754075  7.26923854045404  0.04760261706171
 7 -8.58580213371337  0.82192305150515 -0.30078272737274
 6 -9.29303297569757  1.90729546484648 -0.45342639493949
 6 -10.82958958925893  1.72436230733073 -0.56620240144014
 6 -10.88884324182418  0.29026993139314 -0.67222807830783
 6 -9.47095875917592 -0.28435659885989 -0.57507958465847
 6 -11.82168894419442  2.63980017311731 -0.86947159795980
 6 -12.18120124062406 -0.46652021432143 -1.03276140984098
 6 -12.03381024312431 -0.70062222742274 -2.47400019471947
 7 -6.79943642654265 -1.30344290559056 -0.02528517301730
 6 -7.96727938953895 -2.15679567626763 -0.47269046704670
 6 -7.57888547364736 -3.53474079647965 -0.31888289838984
 6 -6.30543616481648 -3.62646180708071 -0.01960022062206
 6 -5.88747503620362 -2.24612342684268  0.11555774007401
 6 -8.39089761326133 -4.59338671647165 -0.44493730963096
 6 -5.17099330383038 -4.42356815491549  0.21187921362136
 8 -4.97543929262926 -5.69671020932093  0.14024453105311
 6 -3.89264298969897 -3.40224078327833  0.61051569876988
 6 -3.37514102500250 -3.78940511601160  1.85467518051805
 8 -4.19178441854185 -4.00115685048505  2.77488615841584
 8 -1.98976065096510 -3.67487379267927  1.79502944214421
 6 -1.43447196929693 -3.93314840494049  3.00583500870087
 6  2.77576946974698 -2.53709888678868 -1.54227547164716
 6  3.89440320772077 -1.47323432453245 -1.16695222752275
 6  4.99545030043004 -1.20608748014801 -1.91614781638164
 6  5.28887287108711 -2.08773190789079 -3.18860584278428
 6  6.09633345794580 -0.45206285918592 -1.54470102860286
 6  7.34082277627763 -1.05916169826983 -1.13627036433643
 6  8.49069162946295 -0.03819818521852 -0.72391087158716
 6  9.81607469686969 -0.62540946124613 -0.23149145484548
 6  9.47396491279128 -1.59018783348335  0.94384875367537
 6  10.78313064306431  0.47254210841084  0.13422826122612
 6  12.14309958045805 -0.09875856865687  0.02437074827483
 6  13.22863440604060  1.02263953865387  0.32074497289729
 6  14.59932626782678  0.49041231933193  0.45051971407141
 6  14.84741973007301 -0.24163644414441  1.90078000200020
 6  15.62768239663967  1.59979488148815  0.34151735703570
 6  17.07390686878688  1.14885010941094 -0.04791166506651
 6  18.13523307070707  2.27391458265827 -0.14412455925593
 6  19.44422662376238  1.64307280208021 -0.14413449714972
 6  19.79678948024803  1.11387681798180 -1.47643343454345
 6  20.48203537243725  2.71488290629063  0.26404130823082
 1 -3.29632027032703  3.43406465746575  1.08816821852185
 1 -9.34145812831283  4.12780186528653 -0.52091572547255
 1 -10.03589608120812 -2.15569596889689 -0.95179800570057
 1 -2.21958447524753 -1.24428204600460  2.18898894719472
 1 -1.73519285788579  1.26045652185219  0.74789124252425
 1 -0.96660804450445  0.69401771617162  3.04507521862186
 1 -1.77652582648265  2.28269684608461  2.83289940774077
 1 -2.85822815531553  0.74195208050805  3.48485435453545
 1 -2.18614763506351 -1.87175844884489 -0.61136892369237
 1 -1.43100826982698 -0.43836530943094 -1.07524731553155
 1  0.17759575787579 -0.59467090039004  0.93717958315832
 1 -0.37890160996100 -2.09982631643164  0.85186541864186
 1 -4.04009854025403  5.58605643354335  0.15412036973697
 1 -5.13034331493149  6.89034171007101  0.39073597969797
 1 -4.57668869706971  5.88455741674167  1.93199097139714
 1 -8.50521353545355  5.91641675087509  0.21733535773577
 1 -11.86863641724172 -1.76385725322532 -0.29042346954695
 1 -13.05991220622062  0.03508990879088 -0.77761539793979
 1 -12.68520634373437 -1.26342845824582 -3.03803092019202
 1 -12.28655561936194  0.39643706520652 -2.93870604010401
 1 -11.02247907230723 -1.22142545954595 -2.58162476987699
 1 -8.80251943524352 -4.65605216081608 -1.30183241124112
 1 -8.05788100270027 -5.52491250385039 -0.38878853075308
 1 -8.99708698869887 -4.65861782298230  0.19661427092709
 1 -3.12753233463346 -3.20889461436144 -0.27609591639164
 1  2.86757837323732 -3.62269954375438 -1.43208892599260
 1  2.18047233603360 -2.57742365736574 -2.45892612791279
 1  3.85018234593459 -1.05660840924092 -0.09634603300330
 1  4.74544760176018 -1.76753022552255 -4.10786090109011
 1  6.33092667106711 -2.08123679907991 -3.79257048094810
 1  5.26636046344634 -3.26839945424543 -2.98757294109411
 1  6.52157257915792  0.22959829722972 -2.48799141634164
 1  6.08149325872587  0.32648819661966 -0.82462672607261
 1  7.31209238813881 -1.78584678177818 -0.35732401080108
 1  7.49106450485048 -1.55459424972497 -1.88238771467147
 1  8.82741487288729  0.79457005180518 -1.14161694699470
 1  7.83390188828883  0.36727191539154  0.22381809020902
 1  10.04587703480348 -1.12289973367337 -0.99031618921892
 1  8.58591083538354 -2.38950776647665  0.78566692749275
 1  10.34461053045305 -2.17198107930793  1.15470736213621
 1  9.14545775737574 -1.39310053245325  1.85472677777778
 1  10.86742037983798  1.21010377027703 -0.78090526212621
 1  10.56873662026202  1.16031490709071  1.06684056435644
 1  11.89483702590259 -1.09751219071907  0.87341102440244
 1  12.25797795179518 -0.79055727632763 -0.63192619011901
 1  13.03617848784878  1.73316286128613 -0.46801570617062
 1  13.19646169096909  1.72849710101010  1.38490427982798
 1  14.90584201000100 -0.34714223022302 -0.47812600380038
 1  14.63385328522852  0.36492688818882  2.51734450745075
 1  14.30804807830783 -1.52538020992099  2.02852035013501
 1  15.89640667376738 -0.42449603270327  1.88746522422242
 1  15.26323745864586  2.50912090549055 -0.22841281598160
 1  15.62253628622862  2.07465700120012  1.41138946214621
 1  17.02629394449445  0.38678184878488  0.87255744244424
 1  17.15166269046905  0.42628079727973 -0.92625400280028
 1  18.07452245934594  3.07089363716372 -0.80029301760176
 1  18.19848984508451  3.19148305520552  0.85778244874488
 1  19.75757831903190  1.09277212341234  0.74778812961296
 1  19.78518683668367  1.71095614521452 -2.43313543874387
 1  20.75727001700170  0.60538873707371 -0.94088822222222
 1  19.04025675267527  0.60048232983298 -1.70937901260126
 1  20.26956373497350  2.86412599169917  1.48908966256626
 1  21.57460520082008  2.44995157785779  0.50934821982198
 1  20.43231988488849  3.26431391859186 -0.56902169846985
 1 -0.46384200930093 -4.06452920232023  2.31928027602760
 1 -1.76407608860886 -4.60704797849785  3.34174481108111
 1 -1.48179219251925 -3.36824530163016  3.62551670487049
 8 -11.53926230053005  3.82363716291629 -0.92065387908791
 1 -13.15870638213821  2.31447268736874 -1.11784238923892

