%nproc=4
%Mem=2GB
# td=(NStates=1) iop(3/107=0140000000,3/108=0140000000) iop(3/107=0140000000,3/108=0140000000) CAM-B3LYP/6-31G(d,p) 

TD

0 1
12 -6.76019859195920  0.59480862496250  0.12411003050305
 6 -4.53764087058706 -2.15236365816582  0.56150642764276
 6 -4.21193300870087  2.68625025812581  0.74871775337534
 6 -9.05490819551955  3.11283530763076 -0.03606310801080
 6 -9.33797189478948 -1.89142217181718 -0.51134119281928
 7 -4.76738181008101  0.32838223592359  0.76142517461746
 6 -3.95491275687569 -0.86715642244224  0.66965752115212
 6 -2.45827924652465 -0.57980974017402  0.96279834213421
 6 -2.37946791259126  0.96037618641864  1.17496965946595
 6 -3.85064132703270  1.39858994419442  0.94709948464846
 6 -2.02528881458146  1.22216401230123  2.62075663846385
 6 -1.56404515291529 -0.97173973737374 -0.23695236893689
 6 -0.08006612491249 -1.09594130073007  0.20661973547355
 6  0.70715179437944 -1.17657489438944 -1.05659383318332
 8  0.58875894399440 -0.74590720322032 -2.17212820302030
 8  1.92752303890389 -1.87592789138914 -0.62334725722572
 7 -6.75221696389639  2.52898326832683  0.31993574147415
 6 -5.64609517041704  3.24794343754375  0.59748604480448
 6 -5.92649686488649  4.69235892069207  0.72107697629763
 6 -7.12476318971897  4.85426151665167  0.41631821512151
 6 -7.72765446934693  3.52987179557956  0.22350718211821
 6 -5.04103902420242  5.77025445594559  0.99532720072007
 6 -8.11719328062806  6.08718563866387  0.31808133183318
 8 -7.82323623982398  7.22846446304630  0.29399725652565
 7 -8.87215076857686  0.62705356455646 -0.24012666176618
 6 -9.59471314371437  1.72011674697470 -0.43254430673067
 6 -10.76097272757276  1.58177804890489 -0.72642842404240
 6 -11.03938829632963  0.19929083348335 -0.82024287978798
 6 -9.74902656595659 -0.49288745194519 -0.57282935963596
 6 -11.74421119641964  2.63984017711771 -1.20012466326633
 6 -12.23326644714471 -0.69880344264426 -1.26597473117312
 6 -12.15418228032803 -1.22125429062906 -2.70578337303730
 7 -7.05156163906391 -1.42092465376538  0.15054240974097
 6 -8.03325598719872 -2.33618361506151 -0.30819401740174
 6 -7.54308189328933 -3.64793211561156 -0.36096710681068
 6 -6.24745036623662 -3.65717487838784  0.03982572197220
 6 -5.98275456415641 -2.28071688618862  0.23461964626463
 6 -8.44591311481148 -4.83747112491249 -0.63455627152715
 6 -5.03401960646065 -4.52048784688469  0.19635766146615
 8 -4.87859960866087 -5.64552509080908  0.06484699129913
 6 -3.86829055445545 -3.49802036123612  0.51790643784378
 6 -3.34579809070907 -3.61717789328933  1.82889260226023
 8 -3.87331257135714 -3.65103183798380  3.06855552535254
 8 -2.02839451435144 -3.65447175247525  1.70709064826483
 6 -1.27949647174717 -3.80348543864386  2.90670509570957
 6  2.99701159395940 -1.99460463736374 -1.62938418251825
 6  3.96272003940394 -1.05505250635064 -1.19967549984999
 6  5.08098885428543 -0.78090496189619 -1.96288248984898
 6  5.20722470627063 -1.24616775147515 -3.31512849504951
 6  6.17310113471347  0.17683003010301 -1.63064962346235
 6  7.52675136913691 -0.61715749784978 -1.09611634893489
 6  8.56249881018102  0.42166780138014 -0.71778025852585
 6  9.74247733713371 -0.37499441974197  0.00527222152215
 6  9.43788130443044 -0.85164397909791  1.43162753155316
 6  10.92074440444044  0.56234108830883 -0.06973213481348
 6  12.29006427692769 -0.06709540234023  0.39565787698770
 6  13.36030757335734  1.13230050475047  0.30590348874887
 6  14.91012734793479  0.20071334943494  0.55276993909391
 6  15.06452144024403 -0.29584186468647  2.06970689468947
 6  16.04334396279628  1.08695359735974  0.27133033833383
 6  17.47960743884389  0.45632085648565  0.26422954905491
 6  18.38200774817482  1.75968315951595 -0.15621576837684
 6  19.91454365546555  1.04524301910191 -0.20827091079108
 6  20.11008080938094  0.09630506080608 -1.56685247644765
 6  20.95469263816382  2.20947236523652 -0.30025512141214
 1 -3.68290892919292  3.47224847584759  1.26051545324532
 1 -9.75710969346935  3.72064114921492 -0.02464609850985
 1 -10.15907839943994 -2.71821222052205 -0.82746557245725
 1 -2.17958047484749 -1.23850146794679  1.79895994429443
 1 -1.61716105470547  1.36559703590359  0.52241869526953
 1 -0.98358974267427  1.10159847424742  2.79174988608861
 1 -2.38985715961596  2.28756733313331  2.99465558335834
 1 -2.48502083458346  0.83000088538854  3.20359622872287
 1 -1.88927794809481 -1.77167844084408 -0.59107689448945
 1 -1.68861403040304 -0.59996146904690 -1.26094588538854
 1  0.30411841014101 -0.13332476577658  0.63637950315031
 1  0.04687096729673 -1.85128146194619  0.89473970607061
 1 -4.27866239663966  6.02267009490949  0.31016597429743
 1 -5.46162644324433  6.69938261416142  1.01485839193919
 1 -4.58144917311731  5.90813977497750  1.82270004230423
 1 -9.11255426952695  5.80267537673767 -0.13881025682568
 1 -12.50063961756176 -1.53183405090509 -0.54816924412441
 1 -12.95705192019202  0.07747414721472 -1.15114275067507
 1 -13.15172299539954 -1.84123623902390 -3.04616173327333
 1 -11.97442440624063 -0.42863544204420 -3.57487965746575
 1 -11.42824964936494 -2.28391170817082 -3.00868747614761
 1 -9.04899408270827 -5.16245280088009 -1.59964219221922
 1 -7.72202741734174 -5.73154316691669 -0.86073572547255
 1 -9.17423470347035 -5.03583554475448  0.21756636613661
 1 -3.19913949534954 -3.15883960886089 -0.29937824462446
 1  3.26300791619162 -3.14977225102510 -1.30840655775578
 1  2.43067735653565 -1.97001291629163 -2.77973820912091
 1  3.86052338003800 -0.44675742414242 -0.23586998539854
 1  4.39691274827483 -0.98128160066007 -3.68226834183418
 1  6.38809238763876 -0.87184585998600 -3.56330755465547
 1  4.97584141154115 -2.74841745604560 -3.11112529632963
 1  6.60368078997900  0.90025536293629 -2.52241485868587
 1  6.04189929932993  1.05070061786179 -0.77588185158516
 1  7.30401158005801 -1.56643484058406 -0.13636191459146
 1  7.99607500590059 -1.30036882718272 -2.12125160106011
 1  8.72341447284728  1.21852244704470 -1.75477826312631
 1  8.24377287538754  1.61594678287829  0.00585629402940
 1  9.95939838693869 -1.10418786248625 -0.67018417601760
 1  8.58434067836784 -1.34168298399840  1.34569293009301
 1  10.48123419281928 -1.41113499469947  2.08980087148715
 1  8.97319053065307 -0.14136535893589  2.18378968406841
 1  11.01933557135714  1.37652041194119 -0.86696386798680
 1  10.63762350895089  1.58734761036104  0.77393127342734
 1  12.20101764396439 -0.50011245074507  1.41203488678868
 1  12.83310546454645 -0.95498371897190 -0.36968996649665
 1  13.59969483948395  1.62933247824783 -1.08492739733973
 1  13.10030207500750  2.06879113041304  0.86087187658766
 1  15.01141256705671 -0.98173568956896  0.08422023082308
 1  15.35781568146815  0.59714010951095  2.77090986398640
 1  14.16918419191919 -0.86423409530953  2.45982348044804
 1  15.92206924002400 -1.13005658875888  2.02246872457246
 1  16.11292242714271  1.80913090649065 -0.65587556225623
 1  15.78903293589359  1.51806134163416  1.33804212741274
 1  18.01086240134013  0.31215438603860  1.46761694839484
 1  17.33337086128613 -0.77782961376138 -0.40793217061706
 1  18.43143815091509  1.84324087188719 -1.48410139843984
 1  18.56217621372137  2.91639554645465  0.45550222072207
 1  19.93283584478448  0.16151899809981  0.52037538833883
 1  19.64297261526152  0.76522157175718 -2.52918504370437
 1  21.44706899689969 -0.44631643344334 -1.63293742714271
 1  19.39205193219322 -0.97189490789079 -1.32473054775478
 1  20.67923470207021  3.19546912601260  0.50648140174017
 1  21.87494523482348  1.34871145384539 -0.26137885288529
 1  21.11165781868187  2.80811829902990 -1.05250004630463
 1  0.03216759165917 -3.56693944334434  2.51112946094609
 1 -1.39048872987299 -4.92690996469647  3.16700733733373
 1 -1.61736574987499 -3.27437591469147  3.83401755495550
 8 -11.60770914521452  3.90856565576558 -1.06375818951895
 1 -12.68052856435644  2.25504674477448 -1.45982658765877

