%nproc=4
%Mem=4GB
# td=(NStates=1) iop(3/107=0140000000,3/108=0140000000) iop(3/107=0140000000,3/108=0140000000) CAM-B3LYP/6-31G(d,p) 

TD

0 1
12 -5.58119962656266  1.24972984728473  0.28259686488649
 6 -5.05985637283728 -2.09201766506651 -0.26511337813781
 6 -3.27051584068407  1.14722500730073  2.66963233653365
 6 -6.19793858955896  4.59186245044504  0.65764597339734
 6 -8.11696746384638  1.12009285998600 -2.20262793629363
 7 -4.17477173047305 -0.26093428522852  0.91050238903890
 6 -4.23488701620162 -1.64829853145315  0.68366071567157
 6 -3.24555768026803 -2.33225652845285  1.54769913361336
 6 -2.84654782578258 -1.37056994789479  2.73365992209221
 6 -3.44589201660166 -0.06326895459546  2.07817240244024
 6 -3.50841388078808 -1.72317575897590  4.03694639403940
 6 -2.09743493669367 -2.72661007030703  0.68545385088509
 6 -0.96687833133313 -3.58002558315832  1.39418300630063
 6  0.17242234273427 -3.85336917761776  0.56724491919192
 8  0.44548461276128 -3.47193450705071 -0.53429966416642
 8  0.93724056975698 -4.78740835813581  1.19532413971397
 7 -4.90779159545955  2.62834221112111  1.53742397409741
 6 -4.01167325712571  2.43587100880088  2.47521812511251
 6 -3.70841034473447  3.62841134333433  3.10099065526553
 6 -4.55181573427343  4.64708623692369  2.62310158145815
 6 -5.25871197539754  3.95697379257926  1.48271436373637
 6 -2.67773313641364  3.82625000080008  4.22079626902690
 6 -4.68019455005501  5.98816623712371  2.96202570737074
 8 -4.00768081608161  6.56574446244624  3.81620552045205
 7 -6.85966976687669  2.56316621242124 -0.71117277357736
 6 -6.89672238703870  3.90327994519452 -0.35046673537354
 6 -7.87031221762176  4.48029475427543 -1.23744785428543
 6 -8.48535798909891  3.59518644854485 -2.07486643104310
 6 -7.79395828632863  2.34200020882088 -1.67988393489349
 6 -8.25705869676968  6.03813372277228 -1.26678618741874
 6 -9.31206556985699  3.77326772497250 -3.24072870567057
 6 -8.55659711341134  4.10093824002400 -4.63251965596560
 7 -6.38092651165116 -0.16827184488449 -0.98052314431443
 6 -7.43745327492749 -0.06010207880788 -1.95879008970897
 6 -7.68439594679468 -1.43442514611461 -2.64071659425943
 6 -6.64521407020702 -2.18531810361036 -2.07175334103410
 6 -5.92587100250025 -1.37692125722572 -1.03693982438244
 6 -8.61527698549855 -1.66903702970297 -3.72855975217522
 6 -6.22383605070507 -3.56815239913991 -1.95286884198420
 8 -6.44216861236124 -4.50973867226723 -2.62970923602360
 6 -5.09338790089009 -3.55176322892289 -0.86646896669667
 6 -5.29332681008101 -4.52800824192419  0.11607527932793
 8 -5.76139191079108 -4.47713672177218  1.26964332773277
 8 -4.93407310551055 -5.79260045644564 -0.39534267886789
 6 -5.36378394259426 -6.95078693199320  0.45552738253825
 6  2.20041101430143 -4.99739085928593  0.51841579597960
 6  3.43976851185119 -4.16936709760976  0.95535343514351
 6  4.02299168936894 -3.21486435653565  0.23237687268727
 6  3.69903424232423 -2.92086702800280 -1.24586409090909
 6  5.01421784758476 -2.35902094969497  0.70332413121312
 6  6.42831770307031 -2.66429935513551  0.01393286068607
 6  7.61106643024302 -1.73241259675968  0.44135982648265
 6  9.01772259355936 -2.00822565616562 -0.15897367986799
 6  9.41304768646865 -3.48163880428043  0.08380492279228
 6  10.01458203730373 -0.99501973937394  0.32085460096010
 6  11.36066336873687 -0.87023663056306 -0.36378514471447
 6  12.16674436303630  0.38132275977598  0.11016786438644
 6  13.53850630643064  0.47683255315532 -0.56011077427743
 6  14.42435073407341 -0.72316171877188 -0.29686383728373
 6  14.16944288388839  1.74047021862186 -0.22862211701170
 6  15.47412160256025  2.07238526672667 -0.97923291829183
 6  16.08897148154815  3.48501325412541 -0.62114272747275
 6  17.35586083518352  3.85763360496050 -1.23544747994799
 6  17.16542913261326  4.08975386708671 -2.72742496669667
 6  17.86016542264226  5.27093235853585 -0.64824428332833
 1 -2.49425514831483  1.09810408580858  3.43259372777278
 1 -6.44934291309131  5.63575895629563  0.41611060276028
 1 -9.02920332753275  1.00880118301830 -2.94227970677068
 1 -3.53221428622862 -3.26954226962696  2.09405746654665
 1 -1.80410753465347 -1.20725838743874  2.65286656275628
 1 -3.04735451455145 -2.55856901810181  4.38354189818982
 1 -3.33365415811581 -1.05918582298230  4.69899192899290
 1 -4.65566807850785 -1.96795587648765  4.09541349184919
 1 -2.47058237193719 -3.24143366066607 -0.19253987778778
 1 -1.62138997139714 -1.83303241954195  0.25494361596160
 1 -0.31693712721272 -2.96233752935294  2.21393561226123
 1 -1.29033375497550 -4.50484761596160  1.78352015001500
 1 -1.65723583738374  3.68133765816582  3.72774868456846
 1 -2.81445243534353  4.80870807680768  4.75551180888089
 1 -2.62783577857786  2.96170716821682  5.05606061206121
 1 -5.53141620552055  6.69084327872787  2.44535985738574
 1 -10.16929606310631  2.98995965306531 -3.13710696239624
 1 -10.10079087698770  4.70091393549355 -3.06362665336534
 1 -9.32073187298730  3.90207862186219 -5.60589579187919
 1 -7.93570307970797  5.06185593099310 -4.72511246624662
 1 -7.86228607760776  3.19672903170317 -4.79783970877088
 1 -8.02312990259026 -1.03770431333133 -4.67731873017302
 1 -8.59117010001000 -2.67726113121312 -4.19549218621862
 1 -9.58082816231623 -1.20098692209221 -3.59672657935794
 1 -4.13254061146115 -3.51577640424042 -1.50499378627863
 1  2.54547568056806 -6.01444938793879  0.76424238113811
 1  2.23387413081308 -4.82561953805381 -0.62171562116212
 1  3.95325744804481 -4.42825210701070  1.88704371197120
 1  2.66079106580658 -3.23924954605461 -1.68751129212921
 1  3.70086469976998 -1.87309086838684 -1.69784225472547
 1  4.24764693869387 -3.49904363356336 -1.80765969186919
 1  4.69524956585659 -1.50180660466047  0.41689357285729
 1  5.06293482078208 -2.51060269266927  1.62351723202320
 1  6.72055958265827 -3.71589478157816  0.03226111011101
 1  6.31914207460746 -2.41283889288929 -0.93638423392339
 1  7.23934286558656 -0.66329965506551  0.12574982048205
 1  7.89431153405341 -1.62752933603360  1.52216660196020
 1  8.86669077837784 -1.91680995619562 -1.25365870397040
 1  8.64438895759576 -4.15034380578058 -0.36772056445645
 1  10.38890823162316 -3.66780098219822 -0.18058817231723
 1  9.40830989238924 -3.61479257075708  1.21242168486849
 1  9.66073522412241 -0.19990426422642  0.14552991679168
 1  10.13577367486749 -1.19847638153815  1.33703324332433
 1  11.88466360766077 -1.71676170807081 -0.18247262046205
 1  11.15119120582058 -0.84523742864286 -1.48862019561956
 1  11.54094512801280  1.41188561776178  0.09013945874588
 1  12.45309013231323  0.15636682808281  1.21711999219922
 1  13.36944374507451  0.58565299759976 -1.71927416611661
 1  14.79879921822182 -0.84314252695270  0.83993967396740
 1  14.11432700370037 -1.64462347864787 -0.82742906440644
 1  15.66803779217922 -0.60783398159816 -0.60457735023502
 1  13.36594478867887  2.68157277637764 -0.31771355905591
 1  14.60312701300130  1.64914520372037  0.96095330923092
 1  16.24078573437344  1.33342195489549 -0.67844433513351
 1  15.30844642804280  1.85355926872687 -1.98060944064406
 1  15.24496590119012  4.22242762076208 -0.76150814891489
 1  16.26325909600960  3.45749239063906  0.43163306370637
 1  18.23725740714071  3.12396388758876 -1.13359243884388
 1  16.35388610901090  4.88025455435544 -2.93927628742874
 1  17.95967189068907  4.36825633893389 -3.45688029312931
 1  16.96085628582858  3.09456052605261 -3.23437147174717
 1  18.22674872207221  5.15053627112711  0.46642830703070
 1  18.88430595289529  5.77372152435243 -1.17975488988899
 1  17.10594214511451  5.97106660976098 -0.72693675497550
 1 -4.96939224062406 -7.69259869296930 -0.16347988568857
 1 -6.49246367666767 -7.05630271687169  0.67662116961696
 1 -4.89007717631763 -6.93121469706971  1.43685814241424
 8 -7.86666425802580  6.89331583238324 -0.54185196919692
 1 -8.77181547864786  6.32902854775477 -2.26538222102210

