%nproc=4
%Mem=2GB
# td=(NStates=1) iop(3/107=0140000000,3/108=0140000000) iop(3/107=0140000000,3/108=0140000000) CAM-B3LYP/6-31G(d,p) 

TD

0 1
12 -6.80148272037204  0.65837498159816  0.21489910941094
 6 -4.55483258975898 -2.13421184298430  0.53975425242524
 6 -4.30758257365737  2.75745737883788  0.86287916951695
 6 -8.85074777947795  3.07105112921292 -0.19016851855186
 6 -9.30200829842984 -1.66208923852385 -0.70138019671967
 7 -4.73917898979898  0.36142554025403  0.68097712981298
 6 -4.02971023662366 -0.95283499029903  0.63324387978798
 6 -2.48361177977798 -0.60281204040404  1.05364742704270
 6 -2.46615658145815  0.89846999579958  1.21952411491149
 6 -4.01312757565757  1.37013709890989  0.87152192689269
 6 -2.20917720342034  1.47123891979198  2.53448801160116
 6 -1.58784753315332 -1.16312887628763 -0.04523319701970
 6 -0.15306342464246 -1.08833053965397  0.33121219471947
 6  0.71831291049105 -1.32363960086009 -0.82503067686769
 8  0.71144121222122 -0.88369098159816 -1.89409039923992
 8  1.90491077767777 -1.99153945254525 -0.34678960146015
 7 -6.40692243444344  2.52605297529753  0.14565831373137
 6 -5.38581914281428  3.26834547774778  0.52490878707871
 6 -5.77776199139914  4.68194787958796  0.59042391099110
 6 -7.13919463286329  4.83101919241924  0.40071665496550
 6 -7.62420412431243  3.48562737113711  0.10453528492849
 6 -4.71315623592359  5.84243167366737  0.95719338733873
 6 -8.06299786108611  6.10837775787579  0.44206373007301
 8 -7.64095801200120  7.15513713031303  0.70709856665667
 7 -8.77365091859186  0.78276913611361 -0.35904855395540
 6 -9.39905357775778  1.74884962026203 -0.40047109940994
 6 -10.92927955825582  1.53347321842184 -0.72253803500350
 6 -10.86327068456846  0.21415231963196 -0.94813566906691
 6 -9.62795445874587 -0.30713887708771 -0.60963304000400
 6 -11.76124289958996  2.46729292239224 -1.13162781358136
 6 -12.01454457495750 -0.53584714701470 -1.45304343804380
 6 -12.10036689878988 -0.77400956615662 -2.97505029972997
 7 -6.95516199909991 -1.33747630893089 -0.18631127562756
 6 -8.11357401900190 -2.30118011471147 -0.39800299829983
 6 -7.61052863796380 -3.59922724512451 -0.54965597569757
 6 -6.21671729292929 -3.66399556045605 -0.09564782538254
 6 -5.86858314701470 -2.25401421592159  0.17256344064406
 6 -8.39437796129613 -4.74790216801680 -1.00683349924992
 6 -5.14446065056506 -4.54766056415642  0.10041806750675
 8 -4.83648539723972 -5.71102164046405  0.00734124072407
 6 -4.03886761216122 -3.51320187938794  0.57984263146315
 6 -3.58750226112611 -3.83266944244424  1.89735944894489
 8 -4.09285452555256 -3.99570630543054  3.00038870867087
 8 -2.06840851575158 -3.62414872017202  1.84178411761176
 6 -1.30097861996200 -3.85369045914591  3.30938536373637
 6  2.99002089488949 -2.21127630453045 -1.20819206330633
 6  4.17401116851685 -1.18311531263126 -0.99042457475748
 6  4.98095885128513 -0.89581645304530 -1.80518672027203
 6  5.14146813061306 -1.40629376407641 -3.26298328052805
 6  6.01741556615662  0.19065141224122 -1.38249480798080
 6  7.31300999499950 -0.65609139123912 -0.88283502080208
 6  8.48942150245025  0.29938557315732 -0.33940242074207
 6  9.80524361376138 -0.31600852115212  0.13148484278428
 6  9.64314183048305 -1.17556637133713  1.44865923472347
 6  10.84823715371537  0.66840169436944  0.28416325472547
 6  12.25328059855986  0.00382168936894  0.34711302250225
 6  13.48736027862786  1.10127740244024  0.40460335873587
 6  14.93708004320432  0.30197347544754  0.62415707780778
 6  15.09112410051005 -0.34072635313531  2.14320424442444
 6  15.89482911131113  1.47061196319632  0.38664186948695
 6  17.35444492259226  0.78380360476048  0.23485661176118
 6  18.47330687808781  1.79160635183518 -0.52352249904990
 6  19.76030823192319  1.17412590739074 -0.68960904460446
 6  19.75575537683768  0.33539897019702 -2.09458524972497
 6  20.86069323822382  2.11448286628663 -0.86171126702670
 1 -3.37442808110811  3.44912616361636  1.16783618531853
 1 -9.68624260676068  3.96416550165016 -0.47479111301130
 1 -10.29576206780678 -2.31801220052005 -0.82044487038704
 1 -2.41145366216622 -1.03309092689269  1.99428947724773
 1 -2.15979531813181  1.32271274747475  0.63877033043304
 1 -1.09179056275628  1.55845415981598  2.98712942404240
 1 -2.77504567846785  2.52660123652365  2.83371948974897
 1 -2.46830916341634  0.62036992229223  3.34383025212521
 1 -2.02363138343834 -2.09154042704270 -0.40675846264626
 1 -2.06559172817282 -0.65274674757476 -0.93184297509751
 1  0.07911590989099 -0.30899233253325  0.86914277947795
 1  0.08587486768677 -2.02128846264626  1.01368160026003
 1 -4.21687621802180  6.06827465536554 -0.43001804410441
 1 -5.28347862846285  6.86864954085409  1.27815472157216
 1 -3.90526155435544  5.39615857685769  1.95102287458746
 1 -9.21244425852585  6.04462957215722  0.03504712891289
 1 -12.30743029662966 -1.38365923342334 -0.93242766996700
 1 -13.01081729672967 -0.08130173037304 -0.92350998739874
 1 -12.86621444454445 -1.35619773517352 -3.30053717081708
 1 -12.06023298709871 -0.02360493899390 -3.61554372387239
 1 -11.21688851325133 -1.24445776277628 -3.07074368176818
 1 -8.93970315361536 -4.63843039863986 -2.03462569056906
 1 -7.96362157675768 -5.77868788138814 -1.23293294519452
 1 -9.07711499149915 -4.54801676287629 -0.11379677017702
 1 -3.32867244864486 -3.63809753465347 -0.17255556235624
 1  3.33326494189419 -3.29240651445145 -1.14869058615862
 1  2.74850913971397 -1.86876279127913 -2.23060329562956
 1  4.15353268096810 -1.02680542894289  0.14269787138714
 1  4.45467852485248 -1.37238071057106 -3.72789290429043
 1  5.93530710911091 -1.00993966936694 -3.72126335023502
 1  4.79549337673767 -2.19471208550855 -3.38348253205320
 1  6.45569599149915  0.51732707010701 -2.36084870207021
 1  5.93158826822682  0.89682523032303 -0.53000726412641
 1  7.32724390329033 -1.24117231433143 -0.27010528892889
 1  7.76647204560456 -1.05095388568857 -1.62573204910491
 1  8.98127025842584  1.25371596639664 -1.05651843714371
 1  8.31023952205221  0.95123031123112  0.48211391979198
 1  10.35850829792979 -0.86125356905691 -0.85336249384938
 1  8.87775001930193 -1.99736855255526  1.25448380918092
 1  10.35401147054706 -1.88887276847685  1.87652954435444
 1  9.50731394299430 -0.30684190659066  2.38536984208421
 1  10.75882952075207  1.08977173707371 -0.78242541414141
 1  10.54188393499350  1.31557043264326  1.33352723302330
 1  12.49395693789379 -0.53310575007501  1.47832151545155
 1  12.51861401540154 -0.68340656125613 -0.49203220072007
 1  13.66068093809381  1.60192973797380 -0.54793369796980
 1  13.34037608240824  2.07178142944294  1.13365915531553
 1  14.99379080488049 -0.55066258225822 -0.07305549674967
 1  15.02393229312931  0.63246364186419  2.94388716171617
 1  14.44958223172317 -1.15170284218422  2.57627512561256
 1  16.02847988108811 -0.90417400050005  2.21375785348535
 1  15.52980411531153  2.07242723612361 -0.62702267696770
 1  15.83966799939994  2.01871140664066  1.34953327652765
 1  17.45111642674267  0.22085525612561  1.34381456815682
 1  17.35111263546355 -0.24023585438544 -0.58002938033803
 1  17.67694270137014  2.11178772657266 -1.55627861616162
 1  18.61829182528253  2.71936584348435  0.17537420792079
 1  20.08713127432744  0.49452229842984  0.13237658845885
 1  19.54775309330933  0.88321337093709 -3.31581370657066
 1  20.87985227522752 -0.29822162396240 -2.63597773117312
 1  19.24589731673167 -0.84279199759976 -1.92257033173317
 1  21.05974275287529  2.76603618271827  0.02554330793079
 1  21.90324806510651  1.88348493119312 -1.14754746974697
 1  20.85381203410341  2.81575906310631 -1.66680147644764
 1 -0.14378000310031 -3.76372912231223  3.07296564456446
 1 -1.77909759075908 -4.91072834653465  3.49283992059206
 1 -1.50921493479348 -3.15421389848985  3.92550670387039
 8 -11.68486686098610  3.72437723692369 -0.93831564526453
 1 -12.53765427692769  2.15244648474847 -1.87875848084809

