%nproc=4
%Mem=4GB
# td=(NStates=1) iop(3/107=0140000000,3/108=0140000000) iop(3/107=0140000000,3/108=0140000000) CAM-B3LYP/6-31G(d,p) 

TD

0 1
12 -5.52098360496050  1.25411028532853  0.06402500770077
 6 -5.05699608680868 -2.14399286258626 -0.36540340714071
 6 -3.30659944904490  1.20715099989999  2.75133050635064
 6 -6.15653444914491  4.47665092929293  0.67047725652565
 6 -7.84942070917092  1.21522237293729 -2.45328300180018
 7 -4.32060631393139 -0.29895808760876  1.06939827862786
 6 -4.26958048554856 -1.55242894449445  0.75331768136814
 6 -3.25825895039504 -2.34879818261826  1.46892125582558
 6 -2.88461163216322 -1.34340723162316  2.69093564966497
 6 -3.54109153655366 -0.02441506920692  2.19984456965697
 6 -3.51276431583158 -1.75045848724872  3.98765146454645
 6 -2.00821601480148 -2.74702211151115  0.67059236473647
 6 -1.03790543404340 -3.69229681028103  1.51379496749675
 6  0.19219431993199 -4.01369521022102  0.68724691939194
 8  0.39993005730573 -3.54014132773277 -0.37030326452645
 8  1.10695754145415 -4.75197481478148  1.37318192549255
 7 -4.81590240654065  2.59407878477848  1.47069730143014
 6 -3.95057714751475  2.40312773447345  2.50336093939394
 6 -3.78688819251925  3.67151565376538  3.22556311251125
 6 -4.50368092079208  4.64578610691069  2.47213648494850
 6 -5.17233333753375  3.88356645184518  1.46240233253325
 6 -2.92204756785679  3.76937431323132  4.40869505890589
 6 -4.62892942354235  6.06506392689269  2.87498700350035
 8 -4.10632068006801  6.59816770477048  3.86820071997200
 7 -6.85603940384038  2.63423331913191 -0.70556221252125
 6 -7.00478319311931  3.95572518971897 -0.33766545524552
 6 -7.94076926332633  4.53785050985099 -1.23831794129413
 6 -8.40837029032903  3.56062299219922 -2.05955489988999
 6 -7.72808169866987  2.34956096489649 -1.73156910341034
 6 -8.37156014691469  5.97998790819082 -1.18596810561056
 6 -9.27703206650665  3.78816921512151 -3.29035366816682
 6 -8.53679513321332  4.18697684388439 -4.60680708470847
 7 -6.28013643264326 -0.11383640134013 -1.15231032303230
 6 -7.18198772837284  0.03251718311831 -2.13592780348035
 6 -7.52438994619462 -1.24098580218022 -2.72426494909491
 6 -6.65083463226323 -2.10661023282328 -2.06105227092709
 6 -5.91370978637864 -1.39784334943494 -1.16756288668867
 6 -8.55409086688669 -1.69742986898690 -3.72720961716172
 6 -6.18932259935994 -3.61543712761276 -1.97224077917792
 8 -6.60909530503050 -4.56203390179018 -2.55831209630963
 6 -5.10432899499950 -3.46918497109711 -0.84125644544454
 6 -5.44325180258026 -4.64420986208621  0.22402607440744
 8 -5.68229400100010 -4.42680168826883  1.38113447684768
 8 -5.11285098329833 -5.84713590999100 -0.33280642524252
 6 -5.30675824002400 -6.92547440074007  0.60806263606361
 6  2.27709868306831 -5.11016213641364  0.63458741314131
 6  3.32366690169017 -4.08496865776578  1.04997289708971
 6  3.96248563876388 -3.25250812091209  0.14234786978698
 6  3.59741408030803 -3.18468340964096 -1.27915742024202
 6  5.22898932473247 -2.40841588918892  0.61706550535054
 6  6.46261113241324 -2.73918684388439 -0.14731326392639
 6  7.71681700530053 -1.89725908140814  0.47644333483348
 6  8.97643846514652 -1.94025885948595 -0.31574935743574
 6  9.51711809350935 -3.30480112051205 -0.16105956365637
 6  9.92229280838084 -0.81009124652465  0.15642815831583
 6  11.23395069746975 -0.84446405330533 -0.52648141434143
 6  12.03538122672267  0.34240886838684  0.02053890149015
 6  13.49351180698070  0.50562543244324 -0.65547031023102
 6  14.31122942194219 -0.74701410401040 -0.39855400630063
 6  14.18946488608861  1.76506267786779 -0.15786504130413
 6  15.52203639403940  2.14791281948195 -0.81221621662166
 6  16.04015660006000  3.58392314511451 -0.46658727192719
 6  17.32184743384338  3.96212405400540 -1.20897483268327
 6  17.08980156985698  3.99183407510751 -2.75931815601560
 6  17.98800820692069  5.24350961626163 -0.57744720362036
 1 -2.53807953075308  1.17048132353235  3.57977844624462
 1 -6.26765474427443  5.61703708410841  0.72750174187419
 1 -8.47018742594259  1.24689499239924 -3.20592607140714
 1 -3.64325539033903 -3.12930824622462  2.08136619741974
 1 -1.78987611151115 -1.21488915051505  2.52718399449945
 1 -2.89946972607261 -2.61274443564356  4.38760230423042
 1 -3.47806859955996 -1.02309221362136  4.67609963976398
 1 -4.57782029372937 -2.12291137203720  3.82160611111111
 1 -2.26776208990899 -3.13364288158816 -0.41299192299230
 1 -1.47125495789579 -1.78809792609261  0.20908903050305
 1 -0.75638107160716 -3.08099939553955  2.35863008170817
 1 -1.45373009460946 -4.54911204240424  1.77945974397440
 1 -1.79594970877088  3.61095061946195  4.15802171187119
 1 -2.90113110321032  4.81272847884788  4.98011426912691
 1 -3.24668766376638  3.07462846034603  5.34473947994799
 1 -5.30446351025102  6.51333552795279  2.33243856525653
 1 -9.84280341384138  2.92158281538154 -3.43096634833483
 1 -10.02135293319332  4.67127097119712 -3.03056334703470
 1 -9.06828662846285  4.20309872387239 -5.53224842714271
 1 -7.78422793219322  5.21893163856386 -4.40697065206521
 1 -7.77008685768577  3.32352171097110 -4.65277520232023
 1 -8.25606319591959 -1.01811235413541 -4.67878887718772
 1 -8.59840082308231 -2.69483288838884 -4.05397803480348
 1 -9.70443052255226 -1.26685350875088 -3.67844475117512
 1 -4.17543490089009 -3.77666249284928 -1.23652693959396
 1  2.67232836583658 -6.09774771777178  0.99475543244324
 1  1.92476321972197 -4.88752572867287 -0.28174162376238
 1  3.78870099239924 -4.07716699849985  2.08195320292029
 1  2.64537952465246 -3.47436305740574 -1.46741928292829
 1  3.60968558185819 -2.19966352565256 -1.76161863236324
 1  4.33426560056006 -4.03986771597160 -1.84633355925593
 1  4.89964000490049 -1.40528695269527  0.49894177767777
 1  5.19816834413441 -2.55123675607561  1.69243412371237
 1  6.52523004970497 -3.80195338743874  0.08908679267927
 1  6.41173133353335 -2.61655926492649 -1.35557615311531
 1  7.19425835713571 -0.83732705780578  0.63128037353735
 1  8.15357746064606 -2.21776835993599  1.54531891719172
 1  8.89818392769277 -1.64557283248325 -1.26761009910991
 1  8.89220373907391 -4.15101387278728 -0.51407519991999
 1  10.62541188198820 -3.47649185128513 -0.39843995749575
 1  9.63279234063406 -3.72645373687369  0.90932137483748
 1  9.69781893249325  0.27143286948695  0.11637700150015
 1  10.23316341384138 -0.77592412631263  1.30893043304330
 1  11.88527366866687 -1.71594162606261 -0.42141651485148
 1  11.25839192589259 -0.63587649254926 -1.64580591419142
 1  11.55069610311031  1.22956738593859 -0.26020557575758
 1  12.22746757005701  0.38301949334933  1.11497977817782
 1  13.30142694339434  0.79056348864887 -1.65911815051505
 1  14.44052339063906 -0.67730594329433  0.75448112811281
 1  13.83558912991299 -1.45365438173817 -0.87718403990399
 1  15.33559454785479 -0.72290548874887 -1.07954484698470
 1  13.59018721292129  2.66477109620962 -0.55022681038104
 1  14.32999970027003  1.84452474167417  0.92632984688469
 1  16.07504916071607  1.37219583228323 -0.70295678637864
 1  15.33557914131413  2.07538145094509 -1.86186756645665
 1  15.23359476407641  4.25556093409341 -0.68751074917492
 1  16.36193896399640  3.79459610101010  0.62704260466047
 1  17.92890657205720  2.84736622782278 -0.78919799939994
 1  16.28836955735573  4.85148167706771 -3.19227158695870
 1  18.16244216771677  4.37297681098110 -3.18562316741674
 1  16.90822102230223  3.10840191019102 -3.34497253185319
 1  18.17235328252825  4.73991520902090  0.55502716691669
 1  19.04875239753975  5.25724987718772 -0.90731764616462
 1  17.41215276617662  6.16432593569357 -0.51578563986399
 1 -4.71608691009101 -8.03714314741474  0.38236469876988
 1 -6.42689712001200 -7.20820790739074  0.82266577407741
 1 -4.77509567816782 -6.58215979157916  1.64859931653165
 8 -7.81967955955596  6.77800430123012 -0.38259604360436
 1 -9.09471776887689  6.10242588748875 -1.92853853665366

