%nproc=4
%Mem=2GB
# td=(NStates=1) iop(3/107=0140000000,3/108=0140000000) iop(3/107=0140000000,3/108=0140000000) CAM-B3LYP/6-31G(d,p) 

TD

0 1
12 -6.69944251635163  0.66500564466447  0.02708032753275
 6 -4.41607871437144 -1.88464688648865  0.27119739673967
 6 -4.31030284568457  2.93897553065307  0.82257513911391
 6 -9.15335804050405  3.13947797189719 -0.10789029072907
 6 -9.31412951055106 -1.81380441004100 -0.39158921762176
 7 -4.77328240014001  0.44169356705671  0.58427745984598
 6 -3.74299156475648 -0.69158886568657  0.52143269866987
 6 -2.44672809140914 -0.35737749694969  0.85146720902090
 6 -2.45645561136114  1.28069821862186  1.12698486098610
 6 -3.94870113301330  1.60097018221822  0.84773954865487
 6 -1.99167545324532  1.48358015391539  2.51401596439644
 6 -1.55674442284228 -0.75239780318032 -0.30954962866287
 6 -0.26106422472247 -1.05186689328933  0.25229430293029
 6  0.76797787698770 -1.23407064396440 -0.72043021682168
 8  0.70123019111911 -0.94932754525453 -1.90880187038704
 8  1.87313760036004 -2.10092039063906 -0.29893481598160
 7 -6.59391113331333  2.63281365136514  0.22381612951295
 6 -5.58719928082808  3.32534117731773  0.54933122932293
 6 -6.05503971917192  4.76651633643364  0.64759962856286
 6 -7.45971668506851  4.80141623212321  0.27542412571257
 6 -7.87774947884789  3.46086489488949  0.02282711411141
 6 -5.05991091139114  5.87195462596260  0.82280994899490
 6 -8.39192075337534  6.09209612971297  0.30628015171517
 8 -8.07056097229723  7.17407902450245  0.54511236803680
 7 -8.67188074157416  0.77840870007001 -0.22251490059006
 6 -9.57652132453245  1.85071980728073 -0.28943999629963
 6 -10.99179580988099  1.51581145224522 -0.53896967816782
 6 -11.06932128962896  0.08264916931693 -0.57660851635164
 6 -9.60152181548155 -0.43418158135814 -0.46967904460446
 6 -11.96334310961096  2.42136832993299 -0.65579022982298
 6 -12.25083820432043 -0.69679324162416 -0.82554068776878
 6 -12.39040590269027 -1.21506367156716 -2.32255505020502
 7 -6.93017950085008 -1.31647420872087 -0.11063370787079
 6 -8.01923458505851 -2.31003099979998 -0.44200739873987
 6 -7.40537812291229 -3.71450877327733 -0.50999200930093
 6 -5.98948456965697 -3.50590975187519 -0.22526078667867
 6 -5.79252554125412 -2.10830964546455 -0.00501431713171
 6 -7.96027455095509 -4.89522690049005 -1.02782559845985
 6 -4.72426863136314 -4.37655345344534 -0.27798977327733
 8 -4.49169091779178 -5.41978251655166 -0.45712520592059
 6 -3.64606833223322 -3.29819037823782  0.18860350755075
 6 -3.30230374127413 -3.59533570907091  1.55966567956796
 8 -3.74846008610861 -3.83650038483848  2.58956762656266
 8 -2.05229690459046 -3.58914521982198  1.62927286648665
 6 -1.37666618871887 -3.91002609270927  2.88266269146915
 6  3.09322121492149 -2.27766294319432 -1.14601584568457
 6  4.15634940234023 -1.33216021712171 -0.84647017931793
 6  5.22931368676868 -1.18432530393039 -1.58249445104510
 6  5.37258124192419 -1.85472860756076 -2.89314629682968
 6  6.23689751435144 -0.06432408530853 -1.31690824932493
 6  7.37311600560056 -0.60388617071707 -0.72109884718472
 6  8.66080864116411  0.36681231583158 -0.56364484498450
 6  9.78048113751375 -0.41046796709671  0.10720241454145
 6  9.57804532083208 -0.97987680238024  1.40172454125413
 6  10.94925725572557  0.56343119731973  0.21365620402040
 6  12.20987625812581  0.07336864406441  0.40121843304330
 6  13.40601214381438  1.10950822552255  0.31602450085009
 6  14.87920425562556  0.30725400350035  0.46352101420142
 6  14.82804779287929  0.00940866036604  1.97451737573757
 6  15.95964559295930  1.34987988998900  0.22839604490449
 6  17.23093257135714  0.47323254765477 -0.17960483438344
 6  18.36811635903591  1.64217140834083 -0.29631977877788
 6  19.69781198229823  0.81400989578958 -0.37149723342334
 6  19.89835963726373 -0.14803937363736 -1.58802459365937
 6  20.69672684158416  1.93784520252025 -0.55637073297330
 1 -3.64176481478148  3.78702995399540  0.92669207090709
 1 -10.01897588008801  4.01070015511551  0.09749611571157
 1 -10.10156264786479 -2.43927432673267 -0.69327215311531
 1 -1.92514503130313 -0.85516313411341  1.78065811411141
 1 -1.60624996359636  2.01242171837184  0.48740519391939
 1 -0.96014739843984  0.90130844524452  2.88209892099210
 1 -1.98386656055606  2.47332590899090  2.58824494229423
 1 -2.91012334483448  1.24001188648865  3.32990885998600
 1 -1.91633065336534 -1.63143441644165 -0.70223801060106
 1 -1.72215738473847  0.03206173327333 -1.03085287608761
 1  0.36950494879488 -0.22759419271927  1.09043490869087
 1 -0.15476919671967 -1.82309864366437  1.20111034313431
 1 -4.52879741014101  6.28491631953195  0.00974593229323
 1 -5.80140042064206  6.66218889478948  1.40231713781378
 1 -4.28226925512551  5.60218917991799  1.62530030233023
 1 -9.25271828592859  5.94689979917992 -0.03907028282828
 1 -12.23422297589759 -1.55554642214221 -0.27107153435344
 1 -13.03147936293629 -0.42945654585459 -0.62066970337034
 1 -13.37367519061906 -1.54292640804081 -2.35767288438844
 1 -12.44076103990399 -0.50240281878188 -2.87659982948295
 1 -11.67895471987199 -1.84895821282128 -2.59180578797880
 1 -8.52839202250225 -4.83946050165017 -1.72826505450545
 1 -7.37674288888889 -5.90295030763076 -0.90377002890289
 1 -8.55617289728973 -4.75046700790079 -0.35467085758576
 1 -2.72558213961396 -3.69899362426243 -0.38160646744674
 1  3.36960857625763 -3.26937421122112 -0.98528424552455
 1  2.70981527032703 -2.29268518351835 -2.32277251255125
 1  3.85811313901390 -0.77978072647265  0.16018962056206
 1  4.56886994399440 -1.53601707420742 -3.39468958395840
 1  6.38211178957896 -1.71201987738774 -3.12258348224823
 1  5.05041886928693 -3.03687630193019 -2.97918210201020
 1  6.40364078597860  0.55919125652565 -2.45954857205721
 1  6.00499560896090  0.74166971477148 -0.80177444084409
 1  7.18624980388039 -1.23449164626463  0.30062178377838
 1  7.77661305970597 -2.02908169846985 -1.16891636753675
 1  8.80231236263626  1.00047064186419 -1.54737752305231
 1  8.38983748184819  1.32152734093409  0.28811451985199
 1  10.06520896799680 -1.27315475917592 -0.67905506310631
 1  8.81803404770477 -1.60844966066607  1.63365172597260
 1  10.55668173757376 -1.55762964416442  1.82323421482148
 1  9.08089130073007 -0.30362158455846  2.26802810791079
 1  11.05557919571957  1.22428518841884 -0.87913508510851
 1  11.12390213681368  1.31893076867687  0.89384326462646
 1  12.57256479867987 -0.28288072757276  1.42631631493149
 1  12.28907106110611 -0.76943516411641 -0.36784978247825
 1  13.47090196019602  1.61620116511651 -0.66603550815082
 1  12.98455049984998  1.77457170847085  1.10390618001800
 1  15.04180560636063 -0.36392390839084 -0.20392858405841
 1  14.86054595449545  0.92108250375037  2.38873164616462
 1  14.21269854335433 -0.83648132003200  1.98564606270627
 1  15.74225125822582 -0.18537212031203  2.42297877557756
 1  15.83486462136213  2.02529252265226 -0.75317529222922
 1  16.09407343994399  1.98424796029603  1.07628595179518
 1  17.46064737983798  0.04223739433943  0.76375656235624
 1  17.05885340954095 -0.14954678547855 -1.16321769916992
 1  18.10778578567857  2.23063961176118 -1.43945693399340
 1  18.32110210631063  2.32992689958996  0.71367803830383
 1  19.81113367456746  0.02453529972997  0.50943429422942
 1  19.39354767276728 -0.03459841024102 -2.60511263646365
 1  20.88810310031003 -0.43583538533853 -1.36646077947795
 1  19.23151587858786 -0.71513923232323 -1.61134920962096
 1  20.51958873747375  2.36577615671567  0.60537129072907
 1  21.75818355865587  1.53521010371037 -0.41013372837284
 1  20.33866051895189  2.75630311751175 -1.37095189148915
 1 -0.05791141624162 -4.84153690309031  2.59312766076608
 1 -2.21541122212221 -4.40975824952495  3.19716035263526
 1 -1.08602261556156 -2.77146562366237  3.43999815301530
 8 -11.91970034433443  3.70282508170817 -0.46353816751675
 1 -13.03472398389839  1.77157839793979 -0.57705831083108

