%nproc=4
%Mem=4GB
# td=(NStates=1) iop(3/107=0140000000,3/108=0140000000) iop(3/107=0140000000,3/108=0140000000) CAM-B3LYP/6-31G(d,p) 

TD

0 1
12 -5.63198470507051  1.19027390169017  0.32375098029803
 6 -5.01327171437144 -2.16604506780678 -0.31551841864186
 6 -3.38773756285629  1.13359364416442  2.83706908020802
 6 -6.09320811651165  4.56943020722072  0.69854006280628
 6 -7.94854062116212  1.24643549424942 -2.45471314481448
 7 -4.39655390869087 -0.31066925872587  1.14346568536854
 6 -4.26113964146415 -1.66967066866687  0.70268261786179
 6 -3.24498762326233 -2.43758706150615  1.51525588928893
 6 -2.90889406040604 -1.43691658255826  2.63437999409941
 6 -3.62059948734874 -0.10562319001900  2.13388797399740
 6 -3.66120916031603 -1.76915035643564  3.99037173657366
 6 -1.94165935913591 -2.71541895119512  0.71136644214421
 6 -0.96869851335133 -3.62944052465247  1.45557914591459
 6  0.24270937143714 -3.95230907160716  0.63246144084408
 8  0.35856592089209 -3.74900221382138 -0.49313554775478
 8  1.04617146284628 -4.75580519781978  1.38961356865687
 7 -4.96736755305531  2.65475485238524  1.55056528822882
 6 -3.92146423622362  2.38390581228123  2.55330593389339
 6 -3.70151965566557  3.57143564576458  3.23410396659666
 6 -4.48525907860786  4.59216074437444  2.60260953225323
 6 -5.17878398259826  3.94639273447345  1.53186927922792
 6 -2.67533289638964  3.62699007480748  4.31322551195120
 6 -4.54721125172517  5.98888630913091  2.95118462326233
 8 -3.82093214121412  6.52411029902990  3.76252015191519
 7 -6.83587738763876  2.63444334013401 -0.78923057935794
 6 -6.83895661046105  3.94002361956196 -0.34395608430843
 6 -7.69010419681968  4.69088581338134 -1.29888399789979
 6 -8.31473092639264  3.71845877577758 -2.09668861326133
 6 -7.76394528502850  2.48278428722872 -1.82524847134713
 6 -8.09000199109911  6.02830273967397 -1.31032054085409
 6 -9.35987035033503  3.84251464966497 -3.12439707250725
 6 -8.63924537823782  4.19763790999100 -4.58871527552755
 7 -6.34855327432743 -0.08060307800780 -1.09313440544054
 6 -7.28299782938294  0.03122705410541 -2.12916712741274
 6 -7.56277378457846 -1.25367707130713 -2.77562008460846
 6 -6.62921247004700 -2.13930350215021 -2.09953611931193
 6 -5.95024343974397 -1.38232179727973 -1.07647377777778
 6 -8.42092755055505 -1.59865999199920 -3.82037893409341
 6 -6.15370903800380 -3.55595117901790 -2.02465602070207
 8 -6.41323571907191 -4.48712641104110 -2.63532979807981
 6 -5.02126068816882 -3.53850190279028 -0.93248556835684
 6 -5.38208568596860 -4.68490393149315  0.06171984378438
 8 -5.88836460806081 -4.48539754785479  1.16206256965697
 8 -5.13524322252225 -5.85229642604260 -0.36797994259426
 6 -5.40366793099310 -6.96064791809181  0.41396322612261
 6  2.26493746694669 -5.07263838403840  0.69704365876588
 6  3.33656819181918 -4.08329849074908  1.12624052385239
 6  4.01445083528353 -3.23360623072307  0.23075671067107
 6  3.70849518841884 -3.22396733803380 -1.30744024852485
 6  5.02888931473147 -2.40090513811381  0.63718751755176
 6  6.39588445974598 -2.66337926312631 -0.02277080968097
 6  7.53328865246525 -1.76802615811581  0.51475716621662
 6  8.95529635093509 -2.06764159775978 -0.03148093059306
 6  9.56314269596960 -3.37585822622262  0.33328987128713
 6  9.93233381248125 -0.91368160556056  0.40378289378938
 6  11.34973227562756 -0.83561316821682 -0.22539130533053
 6  12.24794248284828  0.29160378787879  0.19811665926593
 6  13.46303875967597  0.43068793869387 -0.59153391659166
 6  14.48802710171017 -0.76198560116012 -0.32894704560456
 6  14.07185312491249  1.86191236283628 -0.38837809260926
 6  15.43942813321332  2.23697172537254 -1.08706370137014
 6  15.89785236963696  3.59150390319032 -0.71459207240724
 6  17.18736398549855  3.95796363796380 -1.40862479767977
 6  17.08332092179218  4.27969286098610 -2.87093931813181
 6  17.65299470557056  5.28092335763576 -0.86186564546455
 1 -2.93956967976798  1.04074835023502  3.75277574597460
 1 -6.25530350915091  5.57778315871587  0.79123811551155
 1 -8.56764717191719  1.14129443234323 -3.41043652245224
 1 -3.70633169796980 -3.41028634403440  1.93387144794479
 1 -1.78747587148715 -1.17861552315232  2.80052132823282
 1 -3.27268704780478 -2.73234639583958  4.38730227422742
 1 -3.59582037473747 -1.09959986438644  4.77313934373437
 1 -4.75272778447845 -1.99621870277028  3.98760271077108
 1 -2.18162347604760 -3.32263178047805 -0.21293191699170
 1 -1.44980281268127 -1.80058917521752  0.32559068066807
 1 -0.61868730223022 -3.21832312791279  2.51770598929893
 1 -1.47557227882788 -4.63078020922092  1.70682248024803
 1 -1.61689180298030  3.46243576797680  4.03261917161716
 1 -2.89381037113711  4.66238344434443  4.87081333903390
 1 -3.10747374237424  2.84779577707771  5.07438244424442
 1 -5.17364042794279  6.65607980238024  2.32003732513251
 1 -9.95064419791979  2.89326998409841 -3.18320157185719
 1 -9.95777657555756  4.75837968206821 -2.85415570627063
 1 -9.47062686248625  4.27755616961696 -5.28030323262326
 1 -7.99892940234023  5.10301004640464 -4.43908386338634
 1 -8.14752460146014  3.47218657745775 -4.88827875267527
 1 -8.16877446704670 -1.22240278317832 -4.67069806810681
 1 -8.43818480148015 -2.76361976707671 -4.03312594959496
 1 -9.50407048654866 -1.39391621502150 -3.72027893459346
 1 -4.14777213461346 -3.78608343494349 -1.38964225112511
 1  2.41898303130313 -6.21729967296730  1.04925088198820
 1  2.13575431883188 -5.07846482258226 -0.36639008860886
 1  3.71185330763076 -4.25673495529553  2.05893090069007
 1  2.57450243694369 -3.34934055515552 -1.44286682768277
 1  3.93318793209321 -2.19426298559856 -1.69637210771077
 1  4.22733490749075 -4.10609433863386 -2.01589051495149
 1  4.52205224612461 -1.40784720872087  0.28477036053605
 1  5.00215874317432 -2.25080671307131  1.68458333863386
 1  6.54519204590459 -3.73056624872487  0.20127801180118
 1  6.55158531893189 -2.47782539153915 -1.06504710021002
 1  7.17755668696870 -0.69216254135414  0.36447369286929
 1  7.70886298919892 -1.72235881898190  1.70108449374937
 1  8.92085619491949 -2.06492476767677 -1.20677401550155
 1  8.88510302900290 -4.36238500990099  0.18222443004300
 1  10.46969631043104 -3.39917411951195 -0.10484059755976
 1  9.87999706110611 -3.67516860836084  1.24483492619262
 1  9.55547469806981  0.15174090029003  0.11508687248725
 1  9.87637773527353 -0.91075760966097  1.46871641164116
 1  11.94279942124212 -1.72856288818882  0.12554818161816
 1  11.34422050875088 -0.72199510441044 -1.25756709030903
 1  11.68293932743274  1.35654008320832  0.14562500730073
 1  12.43756858015801  0.18255944734473  1.16473475367537
 1  13.35773257395740  0.46546097839784 -1.75513775247525
 1  14.64172351065106 -0.68393660636064  0.88370405040504
 1  14.15792136313631 -1.58113713001300 -0.54439076057606
 1  15.34444543294329 -0.43765696389639 -0.81006789928993
 1  13.37286548074808  2.71241586068607 -0.56435822352235
 1  14.04840154045405  2.08121841104110  0.85839305320532
 1  16.22754441024102  1.56027464016402 -0.78412490319032
 1  15.13833941734173  2.16951086388639 -2.08675005470547
 1  15.06199760436044  4.46057143514351 -0.90069206730673
 1  16.06010878097810  3.57793443484348  0.37871777217722
 1  17.85171885328533  3.22417390859086 -1.05737481708171
 1  16.34843556395639  4.95519204810481 -3.01950431023102
 1  18.07031295479548  4.59343885718572 -3.39553415851585
 1  16.95862606280628  3.28108917891789 -3.37095513011301
 1  17.86423247044704  5.24957617511751  0.26835850005001
 1  18.60391791409141  5.62402655485548 -1.34440135453545
 1  16.94601615251525  6.08241774487449 -1.02271633293329
 1 -5.19692499389939 -7.83426285938594 -0.23221675937594
 1 -6.57803223352335 -6.96692377897790  0.83146665416542
 1 -4.70274844344434 -6.78287986358636  1.29121357795780
 8 -7.62838042964296  6.90738723952395 -0.54131191519152
 1 -8.75357365446545  6.23055870077008 -2.16580226302630

