%nproc=4
%Mem=2GB
# td=(NStates=1) iop(3/107=0140000000,3/108=0140000000) iop(3/107=0140000000,3/108=0140000000) CAM-B3LYP/6-31G(d,p) 

TD

0 1
12 -6.58670124222422  0.53252239633963  0.12613023252325
 6 -4.55294240074007 -2.02251067286729  0.35274555155516
 6 -3.99584139953995  2.74407604070407  0.57982086368637
 6 -8.93199590429043  3.21029505360536  0.01890238853885
 6 -9.23937203480348 -1.69292232183218 -0.48786884558456
 7 -4.70498557045704  0.37224662236224  0.57168620072007
 6 -3.83207047264727 -0.85654536133613  0.57467802320232
 6 -2.49792321092109 -0.55490724992499  0.89046110841084
 6 -2.46517648344834  0.86515666446645  0.92483464596460
 6 -3.77701396429643  1.31429151435144  0.65262003670367
 6 -1.85113139883988  1.31254305020502  2.32266682948295
 6 -1.66234498289829 -1.28535109850985 -0.34970364406441
 6 -0.10344846314631 -1.42543425002500  0.09043811731173
 6  0.78882996219622 -1.62871010791079 -1.00851902570257
 8  0.55822589068907 -1.28135074757476 -2.22288327852785
 8  1.97926821342134 -2.03320361896190 -0.56995191769177
 7 -6.45802754495450  2.57364773477348  0.24027777567757
 6 -5.35389595049505  3.25039368256826  0.44190048624863
 6 -5.71987620282028  4.68832851765177  0.52487735633563
 6 -7.03675438883888  4.87368345884588  0.24905148844884
 6 -7.57409911381138  3.56792560096010  0.08962379377938
 6 -4.64758967926793  5.69247667816782  0.76046371437144
 6 -7.62670423172317  6.13370029012901  0.17140666436644
 8 -6.97998191439144  7.23410502710271  0.18917677447745
 7 -8.74343789728973  0.78140900010001 -0.02004465356536
 6 -9.55885955835584  1.86617135243524 -0.08838989128913
 6 -10.81513814411441  1.56879675077508 -0.31502728392839
 6 -10.92203656115612  0.26700760516052 -0.55745660116012
 6 -9.58771043434343 -0.32704086728673 -0.23331540824082
 6 -11.72609938523852  2.65517171027103 -0.48998364916492
 6 -12.34946806730673 -0.43040660296030 -0.94394252795279
 6 -12.42673953605361 -0.53152531773177 -2.33407620232023
 7 -6.94026050895090 -1.55148771007101 -0.02908555305531
 6 -8.04456711831183 -2.26148614531453 -0.33024622262226
 6 -7.70100768586859 -3.57638496089609 -0.25390640074007
 6 -6.36451207240724 -3.61656081698170 -0.08762702330233
 6 -6.03756004470447 -2.22316113061306  0.19428561286129
 6 -8.49597812131213 -4.88321569936994 -0.68334115001500
 6 -5.09309551405140 -4.45996179427943  0.20748877457746
 8 -5.06415816451645 -5.66448698699870  0.04090459705971
 6 -3.90483420882088 -3.60236079527953  0.40689533673367
 6 -3.23394690559056 -3.75878205370537  1.83736344934494
 8 -3.53724896499650 -4.04874160896090  2.95885455525553
 8 -1.97851952685269 -3.56952325762576  1.55749568876888
 6 -1.28266678877888 -3.99793488358836  2.63494791999200
 6  3.12639453225323 -2.28682385928593 -1.56575781988199
 6  4.12372614001400 -1.39302630373037 -1.32507804010401
 6  4.99169992539254 -0.97934480588059 -2.12857905950595
 6  5.03960794459446 -1.64175731043104 -3.46913389558956
 6  6.18207203180318  0.02656500360036 -1.93659021752175
 6  7.24339303330333 -0.53824960706071 -1.13891062836284
 6  8.53471603190319  0.44686032063206 -0.88472695319532
 6  9.53024611401140 -0.25773269356936 -0.11568987468747
 6  9.23272078837884 -0.75883469816982  1.16529089788979
 6  10.86082841284128  0.77034188838884  0.00096493489349
 6  12.17654292479248 -0.02256094889489  0.37532584378438
 6  13.29397093969397  1.10621789648965  0.19071196959696
 6  14.62053838903891  0.35545882398240  0.52509717181718
 6  14.70502549064907 -0.05392767326733  2.10180010401040
 6  15.68268789718972  1.54704960696070  0.48446165146515
 6  16.98526800490049  0.94871009540954  0.48309143524352
 6  18.34311385878588  1.81305849704970  0.07806765996600
 6  19.78326052715272  1.20954944974497  0.09495941224122
 6  19.57546734803480  0.12792822312231 -0.93945973717372
 6  20.73301046994700  2.34232565056506 -0.08571366726673
 1 -3.39288992729273  3.38409966096610  1.01059046074607
 1 -9.57731171367137  4.01833091819182 -0.27322095599560
 1 -10.14054654625463 -2.33680407970797 -0.49566239213921
 1 -2.16407892469247 -1.10571818961896  1.98678872717272
 1 -1.81158049664966  1.09763023922392 -0.11184473107311
 1 -0.71157254095410  1.03931224562456  2.39526023712371
 1 -1.29498767266727  2.51391996839684  2.40052617041704
 1 -2.57628996149615  0.92991087638764  3.31779764886489
 1 -2.09648866916692 -2.30594186718672 -0.69133692049205
 1 -1.94776994599460 -0.67001847474747 -1.30726051685169
 1  0.01657965626563 -0.83342477577758  0.76698256345635
 1  0.09728600880088 -2.18518485228523  0.81221145324532
 1 -3.63704823522352  5.79045687358736 -0.19117415971597
 1 -5.20512079267927  6.59993266916692  0.76244315041504
 1 -3.99540056825683  5.77496645764576  1.84160193249325
 1 -9.01064407850785  6.04767987718772  0.41720534473447
 1 -12.43887344094409 -1.48830969846985 -0.31975640284028
 1 -13.16403261826182 -0.00931453165316 -0.64701233763376
 1 -13.62898072117212 -1.04011612701270 -2.64906202330233
 1 -12.47878484228423  0.17047446894689 -2.80499266876688
 1 -11.45654247864786 -0.91445476247625 -2.85161176857686
 1 -8.67973715701570 -4.76744329992999 -1.74950717871787
 1 -7.95850106470647 -5.79958997159716 -0.30537018891889
 1 -9.63682096209621 -4.90549251045104 -0.09572496299630
 1 -3.14865444684468 -3.77366109100910 -0.36624493129313
 1  3.26051766716672 -3.54948222202220 -1.38850456755675
 1  2.46123041184118 -2.14173008800880 -2.64476471177118
 1  4.20070739843984 -1.21790453885389 -0.32498889728973
 1  4.10134319131913 -1.11421489398940 -4.15575569056906
 1  5.92573615201520 -1.32505118051805 -4.20140136403641
 1  4.96710053745374 -2.53456607090709 -3.43302748654866
 1  6.54220464236424  0.31256659405941 -2.91065368256826
 1  5.70593570297030  0.92422797059706 -1.03594785818582
 1  6.73243442234223 -1.09645784288429 -0.48093637203720
 1  7.47760315871587 -1.51117990829083 -1.78804828072807
 1  8.85284741614161  0.95642623742374 -1.63332611791179
 1  8.20220871897190  1.27928311651165 -0.23683797539754
 1  9.61291373847385 -1.31736918061806 -0.77625478307831
 1  8.61046329062906 -1.31483029872987  0.45951431223122
 1  9.98687475687569 -0.82348622982298  1.69232112351235
 1  8.86062927452745  0.16307508510851  1.95702700780078
 1  10.80435407320732  1.33664642454245 -0.73958112971297
 1  10.83245299189919  1.60300917651765  0.65103898419842
 1  12.14289183138314 -0.28112055155516  1.36339002230223
 1  12.37172932693269 -1.10407862846285 -0.19064206170617
 1  13.50391526152615  1.39174871987199 -0.85633453805381
 1  13.22475452025203  2.12254650595060  0.93759954935494
 1  14.87441886768677 -0.37092460846085 -0.08458664986499
 1  14.97218711861186  0.90764115961596  2.84601737473747
 1  13.62071934543454 -0.68032570447045  2.46871436953695
 1  15.38632566566656 -0.61579516261626  1.94824130183018
 1  15.26663779867987  2.53802379577958 -0.37924789948995
 1  15.44096812941294  2.50097963346335  1.34979330253025
 1  17.25420673577358  0.08144131473147  1.27768795549555
 1  17.02920044424442  0.11087925712571 -0.21127250465047
 1  18.08166317341734  2.37420396819682 -0.64817780608061
 1  18.46322631873187  2.76215012191219  0.63817048754875
 1  19.63750631183119  0.70261310751075  1.35933928472847
 1  19.70236855485549  0.71783683328333 -1.74161628682868
 1  20.31458574857486 -0.19544134593459 -1.26830096349635
 1  18.96806953395340 -0.89731745014501 -0.56973504820482
 1  20.39023580218022  3.32318189728973  0.72484323792379
 1  21.59358709900990  1.63042962566257  0.30626791179118
 1  20.56116276917692  2.72029951715172 -1.35827062336234
 1 -0.38538416351635 -4.29495224462446  2.48350669866987
 1 -1.66936661766177 -4.87106438013801  3.11325196179618
 1 -1.47996200950095 -3.15740421752175  3.35274942814281
 8 -11.68482685698570  3.83576837603760 -0.48871068476848
 1 -12.54758527002700  2.21603284338434 -0.57376798179818

