%nproc=4
%Mem=2GB
# td=(NStates=1) iop(3/107=0140000000,3/108=0140000000) iop(3/107=0140000000,3/108=0140000000) CAM-B3LYP/6-31G(d,p) 

TD

0 1
12 -6.79482205430543  0.53623276737674  0.13946156565657
 6 -4.45589269576958 -1.96908533033303  0.38709898689869
 6 -4.44624644004400  2.89870150325032  0.81697457905791
 6 -9.13703640834084  3.20309433353335 -0.35173467516752
 6 -9.40969906750675 -1.74841787138714 -0.48489854855486
 7 -4.73301837373737  0.47388678637864  0.46142517461746
 6 -3.94910217581758 -0.65689539633963  0.49105966136614
 6 -2.37392081068107 -0.45838759795980  0.71309337163716
 6 -2.38995896169617  1.10095024382438  1.09585174767477
 6 -3.92822908580858  1.55427551275128  0.82683745844584
 6 -2.09748603430343  1.31403319921992  2.49078364116412
 6 -1.54923367176718 -0.90654321772177 -0.28472714641464
 6 -0.10792891119112 -1.00258196479648  0.35093416691669
 6  0.99036011521152 -1.38732596949695 -0.82757093089309
 8  0.75067513561356 -1.04273688618862 -2.07430842104210
 8  2.01679196579658 -1.93903420202020 -0.39261418391839
 7 -6.64454619681968  2.72310268026803  0.30963471137114
 6 -5.56435699659966  3.40413905710571  0.62899919611961
 6 -5.96227044224422  4.87211689648965  0.77631249984998
 6 -7.30430114351435  4.93932002250225  0.39814639793979
 6 -7.86765846974698  3.57961677007701  0.14458929032903
 6 -5.05768068836884  5.89130656115612  1.17781544954495
 6 -8.16722828412841  6.23938085818582  0.43794331803180
 8 -7.70755467166717  7.37542915951595  0.52363021982198
 7 -8.87746129962996  0.62740359955996 -0.30875352445245
 6 -9.54744841724172  1.83839857515752 -0.47279833213321
 6 -10.93588021832183  1.48306817791779 -0.73398918011801
 6 -11.10426478397840  0.10864176857686 -0.80816167166717
 6 -9.74068573187319 -0.30473863706371 -0.50663273997400
 6 -12.20974775007501  2.36099229232923 -0.97725237603760
 6 -12.15931905240524 -0.76756031833183 -1.19665779947995
 6 -12.18663552565257 -1.01873403860386 -2.64661745644564
 7 -7.10513699659966 -1.40943350465047  0.09306666216622
 6 -8.16914957655765 -2.28494849154916 -0.28197139513951
 6 -7.48326591169117 -3.66770409280928 -0.35562657275728
 6 -6.13558918011801 -3.53560272117212 -0.13116137673767
 6 -5.91766805550555 -2.13741255575558  0.09828601290129
 6 -8.37272579607961 -4.85916329412941 -0.66531934783478
 6 -4.92860906540654 -4.34096989508951 -0.00214218851885
 8 -4.74361611031103 -5.55643618191819 -0.10031952535254
 6 -3.80157388278828 -3.36692725192519  0.31409605680568
 6 -3.31438494939494 -3.74885106060606  1.62466217921792
 8 -3.69937517761776 -3.95195192999300  2.78206687648765
 8 -1.87952962786279 -3.54566087138714  1.60237017621762
 6 -1.17336585868587 -3.76995208530853  2.88598302350235
 6  3.03988588138814 -2.29640481738174 -1.14446569066907
 6  4.26372013941394 -1.43610061116112 -0.78511404370437
 6  5.21789254465446 -0.95441231263126 -1.58506470807081
 6  5.20479446324632 -1.58523165786579 -2.96669365156516
 6  6.33387721232123  0.05696804390439 -1.38263482198220
 6  7.59129782378238 -0.50187596969697 -0.95638237553755
 6  8.63985654595460  0.52998863346335 -0.51335981648165
 6  9.81154424382438 -0.29837675797580 -0.02043034873487
 6  9.71717923422342 -1.06192500720072  1.23852822162216
 6  10.99461179117912  0.74206906110611  0.06348118651865
 6  12.35483075357536 -0.10257895069507  0.38998730993099
 6  13.39772131473147  0.93816109080908  0.14307720612061
 6  14.78002433763376  0.22122540064006  0.39938460056006
 6  14.92327731583158 -0.25769805030503  1.84533445744574
 6  15.91912154055406  1.18314321632163  0.11128433373337
 6  17.30662014011401  0.63174839923992  0.16229935603560
 6  18.39455900330033  1.59354654585459 -0.34635478227823
 6  19.84205640674067  0.91634012881288 -0.30901098479848
 6  19.82382218351835 -0.13443801350135 -1.35164095529553
 6  20.97220438933893  2.01089250725073 -0.51839693559356
 1 -3.40158079637964  3.42498374937494  1.37691709340934
 1 -10.02430641314131  3.85242432753275 -0.51157479137914
 1 -9.93870636223622 -2.16719711901190 -1.13105593149315
 1 -2.12732524932493 -0.95717333513351  1.86256630493049
 1 -1.75260459905991  1.50825130133013  0.15173162656266
 1 -1.02704408810881  1.18908722312231  2.90016072717272
 1 -2.39419759365937  2.17216579297930  2.94371048884888
 1 -2.86319865236524  0.81681956725673  2.75804167326733
 1 -1.78991801210121 -1.90366163916392 -0.36333412021202
 1 -1.75431060006001 -0.20190166306631 -1.37169696049605
 1  0.36963496179618 -0.01380281358136  0.76178204340434
 1  0.18500478067807 -1.65330166396640  1.24243447554756
 1 -3.98012254265427  6.28275610351035  0.60200515821582
 1 -5.76390667126713  6.78318099399940  1.33164007010701
 1 -4.80195122332233  5.30692965396540  2.38735650795079
 1 -9.40018303240324  6.15275038423842  0.30353397759776
 1 -11.91935148874887 -1.73728459595960 -0.60608503570357
 1 -13.02127834283428 -0.25617921812181 -1.11610924732473
 1 -13.03623144624463 -1.85703781918192 -3.02509962706271
 1 -12.43392035583558 -0.12259483798380 -3.52543471297130
 1 -11.51664848924893 -1.51536485348535 -2.83161976937694
 1 -8.66412559585959 -4.68817537313731 -1.71845407340734
 1 -7.90671588618862 -5.67124713731373 -0.25887553945395
 1 -9.21126840684068 -4.99142110331033 -0.13773916441644
 1 -2.89844942634263 -3.41702542744274 -0.37939624642464
 1  3.49247086248625 -3.28663593739374 -0.75228094519452
 1  2.77457174597460 -2.11516743174317 -2.28568880418042
 1  4.38104543224322 -1.00428317671767  0.28563216481648
 1  4.39748280528053 -1.49630310281028 -3.34764487948795
 1  6.00896447484748 -1.42735141054105 -3.59710093399340
 1  5.63738756615662 -2.51052366666667 -2.90543472727273
 1  6.82741316321632  0.78600393779378 -2.01643426062606
 1  5.77525263466347  0.63471901970197 -0.69275353875388
 1  7.05974715361536 -1.38214641174117  0.15100682228223
 1  7.94138953735373 -1.33913270357036 -1.78605808170817
 1  8.80795292669267  0.91202179697970 -1.72520530583058
 1  8.26801529962996  1.30669585778578  0.29099480788079
 1  10.27153960106011 -1.32882032573257 -0.66717387498750
 1  8.61419366366637 -1.76130494619462  1.67803616441644
 1  10.48493456285629 -1.39950383158316  1.30332222362236
 1  9.75574878647865 -0.54304552695270  2.12840414551455
 1  10.96503014081408  1.49621238113811 -0.72899007060706
 1  10.87300704730473  1.15090396599660  1.09228310861086
 1  11.95642318451845 -0.78953139263926  1.69818350165017
 1  12.34610676467647 -1.17802602320232  0.01481848434844
 1  13.38064293429343  1.38341788678868 -1.06409531413141
 1  13.25478752355235  1.73414766606661  0.86366215561556
 1  14.92740416621662 -0.43907142314231 -0.36628481968197
 1  14.97786768666867  0.56881727722772  2.56170894389439
 1  13.94710198369837 -0.62000967286729  2.00740823892389
 1  15.75288232133213 -1.04765834893489  2.04026050375038
 1  15.74437557245725  1.63570356375638 -1.03382335703570
 1  15.75582961556156  1.97935747124712  0.44400272347235
 1  17.59098041314131  0.51045421602160  1.22285247194719
 1  16.99381690589059 -0.12474430523052 -0.48988036543654
 1  18.17522252935294  2.00600714851485 -1.34363735203520
 1  18.26243623972398  2.41279518641864  0.40215688618862
 1  19.84609717091709  0.37977082328233  0.91978532933293
 1  19.82617093509351  0.34331938153815 -2.62402452765277
 1  20.61225551555156 -0.17214901670167 -1.60653478687869
 1  19.01776450345034 -0.96245396379638 -1.20195827052705
 1  20.97983476207621  3.34716429552955  0.19801055465547
 1  21.87372511281128  1.70932751545155 -0.33444615961596
 1  20.87968462136213  2.35309279647965 -1.97938273457346
 1  0.08649302420242 -4.17917066646665  2.75214356235623
 1 -1.86656633763376 -4.51067834153415  3.56993763036304
 1 -0.99436344964496 -2.52078055515552  3.51239539273927
 8 -12.09186756105611  3.53496829602960 -0.61110292399240
 1 -13.06415692719272  1.55644688478848 -1.19813041804180

