%nproc=4
%Mem=4GB
# td=(NStates=1) iop(3/107=0140000000,3/108=0140000000) iop(3/107=0140000000,3/108=0140000000) CAM-B3LYP/6-31G(d,p) 

TD

0 1
12 -5.62987449404940  1.14587946224622  0.15010361556156
 6 -5.02380276747675 -2.15014347764776 -0.45819268606861
 6 -3.39639842894289  1.10312059685969  2.70283565686569
 6 -6.07916671237124  4.49383264746475  0.63180338913891
 6 -7.99709547664767  1.20407125782578 -2.42528020152015
 7 -4.44126838013801 -0.30181837363736  0.98582992179218
 6 -4.33428695619562 -1.55622932453245  0.54988733833383
 6 -3.27056018051805 -2.36844014681468  1.42231659535954
 6 -3.00640381138114 -1.46410930183018  2.51879843594359
 6 -3.58477590499050 -0.11912454015402  2.05679026422642
 6 -3.66789982938294 -1.60232367376738  3.91974467386739
 6 -2.04765995919592 -2.78168557785779  0.62068737423742
 6 -0.99557120062006 -3.54503208380838  1.35832942094209
 6  0.22574767526753 -3.91022486318632  0.61385958065807
 8  0.52696276057606 -3.38450576417642 -0.43135937013701
 8  1.12396924262426 -4.68511812911291  1.25135974327433
 7 -5.02068288458846  2.60502987988799  1.48839907160716
 6 -4.07531962176218  2.37459488118812  2.51349195249525
 6 -3.73805330903090  3.59452795499550  3.15941649784978
 6 -4.50733128582858  4.65720724902490  2.55682495379538
 6 -5.33206931113111  3.86491458665867  1.55464155645565
 6 -2.74362972607261  3.81060843664366  4.23581777117712
 6 -4.68550508110811  6.05093251375138  2.95094459925993
 8 -4.06338638663866  6.51229911791179  3.94994889478948
 7 -6.94945874577458  2.64522441824182 -0.65029668596860
 6 -6.95006772157216  3.95707532473247 -0.37837952665267
 6 -8.04351953835383  4.62265899069907 -1.16235034453445
 6 -8.50957041034103  3.62745967586759 -2.10050899529953
 6 -7.82859174967497  2.43295930473047 -1.68930487698770
 6 -8.37250024092409  6.01278118751875 -1.19127863666367
 6 -9.41637600090009  3.88382878107811 -3.30295492829283
 6 -8.62901435513551  4.26759490569057 -4.52887929192919
 7 -6.55996441544154 -0.16640165786579 -0.96559165116512
 6 -7.49861939153915 -0.00028609720972 -2.08588279897990
 6 -7.64711221842184 -1.22406411001100 -2.70462298489849
 6 -6.83177272607261 -2.22689226102610 -2.09512567826783
 6 -6.11133954935493 -1.45008857395740 -1.07711384178418
 6 -8.56985244304430 -1.61172129812981 -3.77742463866387
 6 -6.38606227332733 -3.54335991989199 -1.99339289438944
 8 -6.68482287778778 -4.53861155955596 -2.55735200030003
 6 -5.18580714281428 -3.57668572117212 -0.89477179697970
 6 -5.43875135253525 -4.59499494059406  0.16142981478148
 8 -5.77794356595660 -4.41274028212821  1.31152751615161
 8 -5.15073477167717 -5.88420961736174 -0.36636978157816
 6 -5.19489705390539 -7.03500535383538  0.50795262506251
 6  2.29759073227323 -5.00346146634663  0.61059501390139
 6  3.45713024802480 -4.09588974987499  1.01282918271827
 6  4.13203259345935 -3.30427329742974  0.13495713071307
 6  3.85961029992999 -3.12889783108311 -1.28637814231423
 6  5.27693411921192 -2.46192123972397  0.72581638043804
 6  6.66896176747675 -2.78148107330733  0.24322578997900
 6  7.87294261786179 -1.84411376687669  0.78852454295430
 6  9.20462128342834 -1.98263309690969  0.11962417991799
 6  9.75972235393539 -3.36438707910791  0.29166570887089
 6  10.18538911801180 -0.87584782218222  0.54413692919292
 6  11.40931823422342 -0.78474808170817 -0.27693645984598
 6  12.19811750035003  0.50511513901390  0.04652149974997
 6  13.65641809760976  0.52532740264026 -0.63142790599060
 6  14.42986128512851 -0.80174957755776 -0.48301245214521
 6  14.37070300990099  1.81547771937194 -0.19294854965497
 6  15.47499168956896  2.26621464966497 -1.19418441344134
 6  16.21977456185618  3.41305605840584 -0.52224283748375
 6  17.40523577267727  3.85620346194619 -1.41351528672867
 6  17.21235382508251  4.05820071177118 -2.97851007520752
 6  18.05043444954495  5.11534679998000 -0.73550300920092
 1 -2.76104182698270  1.10723499889989  3.46118658705871
 1 -6.53316129492949  5.64118949934993  0.66614560626063
 1 -8.69252966016602  1.26894719761976 -3.36258173697370
 1 -3.66259732453245 -3.33221853725373  1.95013307410741
 1 -1.93022014591459 -1.48070573217322  2.78260953705371
 1 -3.26325610471047 -2.53605676687669  4.46258980298030
 1 -3.34478527122712 -0.79480938533853  4.60234226402640
 1 -4.75635814751475 -1.84836391729173  3.88776272677268
 1 -2.46826213991399 -3.25271478877888 -0.17513813761376
 1 -1.45794362676268 -1.78596771307131  0.28664678627863
 1 -0.62545797929793 -3.10323161876188  2.30862508120812
 1 -1.35853057465747 -4.57375450665066  1.60338213621362
 1 -1.77999811361136  3.43597312171217  3.77709361906191
 1 -2.79789077917792  4.83320052605260  4.68397465516552
 1 -3.08660165516552  2.91236223372337  5.05794080008001
 1 -5.56488955285529  6.62593678807881  2.37179250065006
 1 -9.92015114861486  2.81558221532153 -3.43112636433643
 1 -10.13426422432243  4.78887273137314 -2.97836812751275
 1 -9.51507130693069  4.15839425342534 -5.39655485778578
 1 -8.34021353075308  5.37921766716672 -4.40999095409541
 1 -7.72717256625663  3.48321768056806 -4.83619354415441
 1 -8.30067765736574 -1.16701724462446 -4.74834583288329
 1 -8.32808379137914 -2.66194960006001 -4.11995463246325
 1 -9.51129120862086 -1.37640446384638 -3.45876278297830
 1 -4.40360771817182 -3.86382120872087 -1.65846913381338
 1  2.59923105610561 -6.01601954495450  0.92687864476448
 1  2.22499324272427 -4.98950592669267 -0.49362281188119
 1  3.72151427372737 -3.97930721252125  2.00980598819882
 1  2.80080506720672 -3.32148776987699 -1.42015455645564
 1  4.22497711101110 -2.22287584688469 -1.50368283878388
 1  4.60566274027403 -3.79404313351335 -1.85473439933993
 1  5.15233527442744 -1.37782420642064  0.59045092859286
 1  5.27847637493749 -2.36226785918592  1.81561644194419
 1  6.80506803350335 -3.89629282138214  0.30290817481748
 1  6.74681484188419 -2.79742735173517 -0.92510310581058
 1  7.65364429572957 -0.87460078517852  0.74505175067507
 1  7.88002010491049 -2.20899748284829  1.82430681598160
 1  8.99804391369137 -1.82030030523052 -0.88860219831983
 1  9.05973049174917 -4.13765253665366  0.19521572917292
 1  10.47205654645465 -3.45663986608661 -0.33854396789679
 1  10.15831489288929 -3.48049914141414  1.32782322502250
 1  9.55058420902090  0.01975770197020  0.21781714551455
 1  10.40019011651165 -0.72031856575658  1.67588712871287
 1  12.08598373967397 -1.53763379527953 -0.19153352655266
 1  11.34185027172717 -0.61260416531653 -1.43394472807281
 1  11.69148018151815  1.45265969516952 -0.06187574277428
 1  12.24944976827683  0.53398458985899  1.19132741294129
 1  13.65034183488349  0.43501793409341 -1.76734897359736
 1  14.80912025032503 -1.29680789348935  0.57159283928393
 1  13.72041761276128 -1.74726374267427 -1.06482280378038
 1  15.47898888728873 -0.96944014221422 -1.03146003850385
 1  13.56292448664867  2.59523414251425  0.02134034633463
 1  14.75895259555956  1.53942423162316  0.87316453035304
 1  16.19853150895090  1.42030064276428 -1.38270476117612
 1  15.12927851125113  2.54302821562156 -2.28546992669267
 1  15.38096950155015  4.07919329732973 -0.52261425952595
 1  16.52773554365437  3.20700734213421  0.44062396279628
 1  18.22229591099110  3.09858134933493 -1.45982506210621
 1  16.51595231563156  4.83679020792079 -3.09507186698670
 1  18.25079100260026  4.43470298359836 -3.38472307740774
 1  16.83120332053205  3.15624669466947 -3.36356439103910
 1  18.34827087428743  5.05640685818582  0.26655832003200
 1  18.94501202350235  5.49396354855486 -1.31315823022302
 1  17.38186973787379  6.09637914101410 -0.49761382268227
 1 -4.29051435283528 -7.98813824692469 -0.00862440014001
 1 -6.26721115141514 -7.51266835343534  0.77244075157516
 1 -4.91720988958896 -6.73002457805781  1.56647110371037
 8 -7.81960955255526  6.85306180698070 -0.39400718471847
 1 -9.06391468856886  6.39302494739474 -2.02430811361136

