%nproc=4
%Mem=4GB
# td=(NStates=1) iop(3/107=0140000000,3/108=0140000000) iop(3/107=0140000000,3/108=0140000000) CAM-B3LYP/6-31G(d,p) 

TD

0 1
12 -5.68274978157816  1.16416129042904  0.20124873007301
 6 -5.07251763896390 -2.18951741504150 -0.29268613541354
 6 -3.36422521162116  1.20298058285829  2.71704707800780
 6 -6.20565936163616  4.54427769196920  0.71021122992299
 6 -8.06578234533453  1.14779563026303 -2.26961463496350
 7 -4.35885013831383 -0.25318351015102  1.08387972677268
 6 -4.29679320682068 -1.58283198479848  0.66446879647965
 6 -3.21174429892989 -2.31844514731473  1.50368473217322
 6 -2.99183235423542 -1.26448933983398  2.67555411151115
 6 -3.63256068346835 -0.08433106080608  2.13061764696470
 6 -3.59479251865186 -1.81031447284729  3.98572127152715
 6 -1.94771996519652 -2.68239564886489  0.54385969146915
 6 -1.03146478997900 -3.49949753035304  1.45378896689669
 6  0.27198229872987 -3.75758959965997  0.60276847154715
 8  0.46504656895690 -3.24889220282028 -0.46368260246025
 8  1.03221006670667 -4.64561417871787  1.22138674597460
 7 -4.88544936123612  2.65842521942194  1.42358258995900
 6 -4.00765285508551  2.40739816151615  2.47797840114011
 6 -3.68426793049305  3.69343784598460  3.14234479067907
 6 -4.39954050675068  4.58690021832183  2.44770404170417
 6 -5.29151525572557  3.89835793099310  1.46760285258526
 6 -2.68769413251325  3.66187356315632  4.27907209660966
 6 -4.46228275887589  6.02776019651965  2.81481098589859
 8 -3.84042409040904  6.60140802880288  3.79103300320032
 7 -6.99514331423142  2.61300119591959 -0.68281993829383
 6 -6.90215293009301  3.91003062026203 -0.39105079377938
 6 -7.94461964836484  4.65413213801380 -1.14904901440144
 6 -8.52614206750675  3.61920885078508 -2.11039998439844
 6 -7.82717160766077  2.39205521432143 -1.77953389988999
 6 -8.31661465236524  6.03346325572557 -1.12019152795280
 6 -9.46894125742574  3.76297669586959 -3.18867350015001
 6 -8.77539899359936  4.08362650885088 -4.50325672967297
 7 -6.40833925292529 -0.22282730043004 -0.98890398239824
 6 -7.48634816441644 -0.10380644924492 -1.95100931163116
 6 -7.53430093729373 -1.43510521412141 -2.61134365696570
 6 -6.59378892769277 -2.23731330313031 -2.04092025772577
 6 -6.02999141454145 -1.46052961806181 -1.07828395879588
 6 -8.57143260106010 -1.52634276027603 -3.88441533773377
 6 -6.11309497659766 -3.58248383228323 -2.06785034013401
 8 -6.48471286678668 -4.53522122052205 -2.71438770387039
 6 -5.04189275137514 -3.51549960256026 -0.93763608340834
 6 -5.39382686008601 -4.63613905500550  0.12492616441644
 8 -5.81424719631963 -4.49077808590859  1.23974033743374
 8 -5.14022372057206 -5.86393759015901 -0.41167431203120
 6 -5.31844940914091 -7.01843369666967  0.55302713251325
 6  2.36606757995800 -5.01237235743574  0.56339029342934
 6  3.43754828982898 -4.03965412631263  0.94221212101210
 6  4.11585097529753 -3.22196506660666  0.17447108210821
 6  3.72479681858186 -3.05503044434443 -1.29978948344834
 6  5.21377780358036 -2.31520656825683  0.65029882868287
 6  6.61696656795680 -2.71275420062006  0.04765623302330
 6  7.68536385998600 -1.79573892939294  0.54572026252625
 6  9.05813663496350 -1.91159599319932 -0.12836061856186
 6  9.57639402110211 -3.42369300970097  0.04860140244024
 6  10.11293187228723 -0.94681491889189  0.52746526202620
 6  11.35213251565157 -0.93803341024102 -0.20489925612561
 6  12.24948263686369  0.19587421492149  0.38276512411241
 6  13.50515297109711  0.43059792969297 -0.55544030723072
 6  14.55505380438044 -0.70210961356136 -0.41370552145215
 6  14.18823476307631  1.80763693529353 -0.20767002180218
 6  15.41659584998500  2.12360038823882 -1.02977797279728
 6  15.98147073147315  3.44428918171817 -0.49495010821082
 6  17.29628487758776  3.90832867446745 -1.31027496269627
 6  17.13311590129013  3.94033892559256 -2.81759398359836
 6  17.84218362446244  5.28378364366437 -0.82054151305130
 1 -2.73597932073207  0.91044531993199  3.59329979837984
 1 -6.31776975577558  5.58634401480148  0.68153714541454
 1 -8.54610501770177  1.17596789968997 -3.03585906470647
 1 -3.63928499329933 -3.31318663406341  1.68878693949395
 1 -1.94351147504750 -0.94640230183018  2.90657193329333
 1 -2.89976975607561 -2.43127628882888  4.60607415141514
 1 -3.61781257395740 -0.86312621702170  4.72528455825583
 1 -4.52210472217222 -2.16561564246425  3.74174812531253
 1 -2.27511282498250 -3.43086260356036 -0.33806443024302
 1 -1.59345717811781 -1.69717883418342  0.41475959755976
 1 -0.57938337183718 -3.12414370997100  2.22907712641264
 1 -1.60852557415742 -4.42700983218322  1.88334013201320
 1 -1.71944205800580  3.30532005640564  3.87832374207421
 1 -2.73821481158116  4.79602680868087  4.66614287198720
 1 -3.02029502450245  3.11308230573057  5.17637264326433
 1 -5.02226529042904  6.56208040244024  2.32499782118212
 1 -9.84689382288229  2.63005366246625 -3.37334058575858
 1 -10.06616741464146  4.63736758085809 -3.00520081078108
 1 -9.65636543634364  4.03697211121112 -5.15532073437344
 1 -8.26199570897090  4.98589833523352 -4.44364431943194
 1 -8.11398124712471  3.28774813361336 -4.74903482828283
 1 -8.41588917851785 -0.72719326222622 -4.70124112241224
 1 -8.53755473847385 -2.58250165526553 -4.22069470647065
 1 -9.52608268776878 -1.11415823922392 -3.48655556225623
 1 -4.18218557595760 -3.79999482608261 -1.57430071697170
 1  2.39619075207521 -6.06340428342834  0.89239519641964
 1  2.35732647604760 -5.15098207430743 -0.64771822142214
 1  3.75605772807281 -3.91716099789979  1.89253426102610
 1  2.55290027672767 -3.04601022212221 -1.58303084408441
 1  4.13743835713571 -2.06048960826083 -1.55718818931893
 1  4.46370854485449 -3.58694242344234 -2.00018894479448
 1  4.93153319421942 -1.22647907190719  0.27935981948195
 1  5.34819334663466 -2.27563919631963  1.79282416271627
 1  6.58642616931693 -3.83044623672367  0.26045392939294
 1  6.67442760316032 -2.68293590259026 -1.08331892739274
 1  7.27570650195019 -0.86580990609061  0.69476672217222
 1  7.43035513841384 -2.05854243734373  1.49915430073007
 1  9.00865497479748 -1.60854913011301 -1.06292963106311
 1  8.79723424212421 -4.16211498289829 -0.21915570797080
 1  10.41814115491549 -3.65562976507651 -0.47804791829183
 1  9.82414147554755 -3.58100919241924  1.08772921562156
 1  9.64887403800380  0.06109183538354  0.78243360716072
 1  10.19909000650065 -1.34309084298430  1.56836637663766
 1  11.84861000230023 -1.98890892279228 -0.25720009320932
 1  11.08272435913591 -0.70736364126413 -1.32524385798580
 1  11.81576260976098  1.04125855505551  0.46852729752975
 1  12.50925574887489  0.08766995839584  1.41159944014401
 1  13.06070287098710  0.42122655495550 -1.58158039673967
 1  15.05739507780778 -0.71220943364336  0.51520720072007
 1  14.07897346834683 -1.73212222852285 -0.46471279277928
 1  15.36800778917892 -0.68108130633063 -1.23808070057006
 1  13.51675987018702  2.71732635173517 -0.01196298399840
 1  14.35299199949995  1.59732002120212  0.79202641654165
 1  15.91490314611461  1.19004761746175 -0.82389888058806
 1  15.11234681808181  2.08664257705771 -2.01086246594659
 1  15.40923232783278  4.30669604760476 -0.81714371247125
 1  16.17626039613961  3.76425306670667  0.62161206160616
 1  17.96198988038804  2.97705919711971 -1.04171325092509
 1  16.33654437483748  4.44638116701670 -3.18674103390339
 1  18.23694961846185  4.08902841614161 -3.40915552065207
 1  16.96870707090709  2.83284435443544 -3.30103813841384
 1  18.14305035223522  5.28908012551255  0.16009767396740
 1  18.85679320162016  5.50140429262926 -1.30681759615962
 1  17.09670122102210  6.02698220132013 -1.07001106240624
 1 -4.97566286768677 -7.86239567266727  0.01198766106611
 1 -6.39930436073607 -7.19778686528653  1.04840834833483
 1 -4.40940910951095 -6.92193376897690  1.31376583318332
 8 -7.85607319891989  6.86816331713171 -0.44309209320932
 1 -9.18953725082508  6.25953159805981 -1.76882256505651

