%nproc=4
%Mem=4GB
# td=(NStates=1) iop(3/107=0140000000,3/108=0140000000) iop(3/107=0140000000,3/108=0140000000) CAM-B3LYP/6-31G(d,p) 

TD

0 1
12 -5.69140064666467  1.14016889118912  0.16841544674467
 6 -5.02398278547855 -2.21772023532353 -0.36829369616962
 6 -3.57544633373337  1.03302358715872  2.85953132643264
 6 -6.08701749744974  4.57913117731773  0.59137934673467
 6 -7.90494626172617  1.17636848754875 -2.48112578607861
 7 -4.49768402170217 -0.35828402020202  1.14731607040704
 6 -4.32294582208221 -1.58735243684368  0.69752210181018
 6 -3.27275039953995 -2.34855815861586  1.51489585328533
 6 -3.00540371137114 -1.39980287118712  2.76539309540954
 6 -3.66015344274427 -0.15231785948595  2.25837042224222
 6 -3.61138417781778 -1.94836827822782  4.05623832323232
 6 -1.99370456365637 -2.64584199349935  0.63187849334933
 6 -1.07313895739574 -3.61519910051005  1.45697928592859
 6  0.18731383188319 -3.82412625332533  0.61526972167217
 8  0.51890195449545 -3.41826914051405 -0.54066030023002
 8  1.01973881958196 -4.67118673597360  1.30598520582058
 7 -4.97123794009401  2.58541791869187  1.46827705940594
 6 -4.00509259905991  2.31619904160416  2.50145074837484
 6 -3.78484798849885  3.55804430663066  3.28028858505851
 6 -4.43629418211821  4.59007053535354  2.61167043834383
 6 -5.22382848704870  3.98464655985599  1.53249934223422
 6 -2.87044240734073  3.68589596539654  4.47058124752475
 6 -4.53757028762876  5.94840226072607  2.95835534033403
 8 -3.95047509550955  6.54634252225222  3.86153005290529
 7 -6.79759355925593  2.64874477027703 -0.82445410171017
 6 -6.81082379717972  3.98306792399240 -0.44818650735074
 6 -7.76967215361536  4.68108483328333 -1.30976508600860
 6 -8.34309376267627  3.68105503540354 -2.11468041244124
 6 -7.66415530603060  2.44336034483448 -1.76960290679068
 6 -8.16060905180518  6.07315722512251 -1.21541104990499
 6 -9.31830619391939  3.85862626082608 -3.15659029182918
 6 -8.72644409810981  4.02263040924092 -4.59145554955496
 7 -6.40085850485048 -0.12581759945995 -1.06184127612761
 6 -7.28693822342234 -0.04558062666267 -2.11857606830683
 6 -7.52176968416842 -1.23483518711871 -2.81940446304630
 6 -6.71786133493349 -2.16449602140214 -2.13181934763476
 6 -6.02837125252525 -1.44751831693169 -1.09494562496250
 6 -8.55390084788479 -1.53044317031703 -3.76584348054805
 6 -6.20038370547055 -3.60250583448345 -2.05743929902990
 8 -6.62965736123612 -4.53909160756076 -2.69696596169617
 6 -5.08829739183918 -3.59310736333633 -0.93850617041704
 6 -5.37878535593559 -4.66749219031903  0.15730940274027
 8 -5.93978975057506 -4.37990699879988  1.29337570097010
 8 -5.03135283348335 -5.86563776017602 -0.24215736033603
 6 -5.40670823502350 -6.88650050335033  0.57431926172617
 6  2.30543151635164 -5.09842096229623  0.63838779317932
 6  3.44640917591759 -4.12232239313931  0.92670056985699
 6  4.05739512971297 -3.30130300040004  0.11889552455246
 6  3.74281862076208 -3.14867980928093 -1.29983948844884
 6  5.19240566636664 -2.48389343694369  0.67105090389039
 6  6.53467833913391 -2.67764068926893 -0.07027556015602
 6  7.68234355795580 -1.84457381288129  0.57166285678568
 6  9.09312013331333 -1.96489132273227 -0.03706148864886
 6  9.57611399309931 -3.36531717211721  0.19178572087209
 6  9.95594617371737 -0.83478371577158  0.41015353085309
 6  11.35091239363936 -0.84935454235424 -0.19470823702370
 6  12.21896958555855  0.37286191369137  0.20378722632263
 6  13.53407586338634  0.58840371027103 -0.64771953515352
 6  14.48898719771977 -0.63505290789079 -0.33412756365637
 6  14.25008094769477  1.90579675127513 -0.15737499229923
 6  15.47138132853285  2.13314134233423 -0.98726372137214
 6  16.06187877227723  3.46216096889689 -0.65488610181018
 6  17.40228547764777  3.89490733233323 -1.42098603380338
 6  17.13742633233323  4.04670956265627 -2.95162738693869
 6  18.01920132623262  5.29606487178718 -0.93384284318432
 1 -3.00191591439144  1.05371964736474  3.84143461186119
 1 -6.31355933473347  5.71475685608561  0.84540353205321
 1 -8.34718512571257  1.22733303620362 -3.42325780458046
 1 -3.61442250705070 -3.37663297869787  1.82086014681468
 1 -1.85576270017002 -1.27060472207221  3.10348162426243
 1 -3.19203898299830 -2.87517067826783  4.55985952995299
 1 -3.32773356605661 -1.25914581898190  5.00826285608561
 1 -4.85981849354936 -2.08476755765577  3.67636158665867
 1 -2.21761707540754 -3.02790230753075 -0.49752037583758
 1 -1.45263309570957 -1.73748286458646  0.39630775237524
 1 -0.80057549104911 -3.00225152075208  2.42657687638764
 1 -1.60448517011701 -4.74201133233323  1.46493829182918
 1 -1.89988010181018  3.57345687008701  4.12040795049505
 1 -3.06472746284628  4.63302050805081  4.91067732543254
 1 -2.77493048804881  3.01179217671767  5.30644565056506
 1 -5.10540360426043  6.70731492589259  2.29520484188419
 1 -10.05607474097410  3.12588324542454 -2.94266751845185
 1 -9.87333813171317  4.61085492959296 -2.82442273297330
 1 -9.56540634043404  4.14001241524152 -5.37687288958896
 1 -8.04483399279928  4.98107785318532 -4.69379933493349
 1 -8.14862471147115  3.17889724852485 -4.86014593939394
 1 -8.30118770837084 -0.99499004190419 -4.75393639193919
 1 -8.65849683268327 -2.62212561766177 -3.97987062406241
 1 -9.47991807130713 -1.19903672707271 -3.41393830053005
 1 -4.03228058545854 -3.96036086268627 -1.52527581448145
 1  2.25983711671167 -6.12930087308731  0.96486244314431
 1  2.12695343874387 -5.19013598969897 -0.50424387398740
 1  3.82723484578458 -4.02628190999100  1.86288129572957
 1  2.75665065176518 -3.57452307340734 -1.41185372637264
 1  3.75314992829283 -1.99844340364036 -1.74275674617462
 1  4.41904407840784 -3.79555328452845 -1.76693561946195
 1  4.86660670157016 -1.35098152215222  0.80546242974297
 1  5.29503803110311 -2.81494312671267  1.70367524782478
 1  6.70999852655266 -3.78079127122712 -0.07418953495350
 1  6.30163032343234 -2.17832544154415 -1.16472706820682
 1  7.27255618691869 -0.88154147924792  0.51117836333633
 1  7.71952405530553 -2.11729831293129  1.62058644394439
 1  8.97425153445345 -1.87346562176218 -1.05460879897990
 1  8.92987750645064 -4.23028179957996 -0.12854664706471
 1  10.49178851965197 -3.47977217931793 -0.12800291379138
 1  9.83711277267727 -3.34148524002400  1.34058450115011
 1  9.30249940054006  0.18213393959396  0.52707807160716
 1  10.19790988848885 -0.91816835073507  1.44652419241924
 1  11.96720186148615 -1.66960699259926  0.36742236903690
 1  11.32067815451545 -0.92075498039804 -1.29735106870687
 1  11.60059109260926  1.22713714291429  0.02495294009401
 1  12.56429125242524  0.47293848524852  1.36251453165317
 1  13.28407520822082  0.69859429172917 -1.58009024772477
 1  15.08551789008901 -0.65563377607761  0.67345302530253
 1  14.00421599259926 -1.59591860816082 -0.62684900640064
 1  15.34002499089909 -0.66200939913991 -1.16529342184218
 1  13.57709590379038  2.79226384548455 -0.05480726842684
 1  14.46885358565857  1.85510579977998  1.01996921082108
 1  16.30356201200120  1.25315392809281 -0.82614910561056
 1  14.96741232463246  2.38614252705270 -2.07019839953995
 1  15.23621502610261  4.29644502250225 -0.86025802390239
 1  16.21396416651665  3.72181882328233  0.43895379577958
 1  18.24820850225023  3.10050154135414 -1.35069414901490
 1  16.56908762916292  4.77380390929093 -3.30136249604961
 1  18.07962388588859  4.42826233953395 -3.41319592469247
 1  16.87127732793279  3.11836290629063 -3.40084811941194
 1  18.21120716791679  5.21156237373737  0.19446111031103
 1  19.09021654395439  5.47628178037804 -1.32248916331633
 1  17.48329988088809  6.23739324242424 -0.95500956225623
 1 -4.89418471987199 -7.78829826292629  0.18181464376438
 1 -6.53685811611161 -6.91548863546355  0.53536704420442
 1 -4.84016218481848 -6.85391696729673  1.68686314291429
 8 -7.82869046064606  6.90030653145315 -0.47064484848485
 1 -8.86869516661666  6.38264390929093 -2.00825650845084

