%nproc=4
%Mem=4GB
# td=(NStates=1) iop(3/107=0140000000,3/108=0140000000) iop(3/107=0140000000,3/108=0140000000) CAM-B3LYP/6-31G(d,p) 

TD

0 1
12 -5.67736924352435  1.16241111541154  0.25988459365937
 6 -4.91542192939294 -2.17258572187219 -0.38250511731173
 6 -3.42623141224122  1.17540782558256  2.78038341164116
 6 -6.34249304500450  4.50047331153115  0.83755396419642
 6 -7.92080784788479  1.14143499419942 -2.40164783828383
 7 -4.34927918121812 -0.31527971977198  1.04789612841284
 6 -4.18737226472647 -1.61143484508451  0.66623897349735
 6 -3.28840196469647 -2.42482578537854  1.46858122182218
 6 -2.97726089708971 -1.43222611351135  2.68226478257826
 6 -3.57726515391539 -0.09340196789679  2.20765535073507
 6 -3.56039907930793 -1.69607304870487  3.95558825822582
 6 -2.03310850405040 -2.67576498579858  0.62215752125212
 6 -1.00508215171517 -3.45319289988999  1.46391997999800
 6  0.20439554005401 -3.76536037673767  0.66483467816782
 8  0.61062112641264 -3.34520183378338 -0.38240447464746
 8  1.00421726742674 -4.63390300760076  1.39173378067807
 7 -4.99033985028503  2.64505388228823  1.49412964466447
 6 -3.94612670247025  2.49273669536954  2.45399600290029
 6 -3.75448495219522  3.67874637683768  3.09741029722972
 6 -4.51230178287829  4.62210373867387  2.55985525682568
 6 -5.35345144934493  4.01884998019802  1.51807790009001
 6 -2.84555991909191  3.77280465626563  4.35534972437244
 6 -4.49133566416642  6.05299271977198  2.75449495429543
 8 -3.90481052905291  6.57985587358736  3.65444934483448
 7 -6.97703150305030  2.63203309910991 -0.74037569386939
 6 -6.99944265906591  3.87557717491749 -0.24129581828183
 6 -8.07914310071007  4.54422114691469 -1.06276038553855
 6 -8.54937439073907  3.60181711161116 -2.04269321372137
 6 -7.82955184568457  2.43252926172617 -1.69875582208221
 6 -8.37151014191419  5.94431434083408 -1.01567107590759
 6 -9.47902226552655  3.83640403860386 -3.16587121992199
 6 -8.72649410311031  3.96467461366137 -4.55281168516852
 7 -6.33156157515752 -0.10899591729173 -1.13815890789079
 6 -7.22354188378838  0.04260819221922 -2.21371558225823
 6 -7.42421992919292 -1.30578228182818 -2.78745126772677
 6 -6.57146669546955 -2.18950852265227 -2.11294746044604
 6 -5.93559197459746 -1.35694926002600 -1.13414954535454
 6 -8.32801825962596 -1.52237236323632 -3.96041293749375
 6 -6.16647031413141 -3.48872445634563 -1.95783933903390
 8 -6.50429482498250 -4.43239093749375 -2.62889915501550
 6 -5.10045860796080 -3.60907896049605 -0.92572489228923
 6 -5.26333381078108 -4.65513095419542  0.15951962376238
 8 -5.71021679327933 -4.43361236933693  1.28718508190819
 8 -5.10090978917892 -5.86973817021702 -0.41713485808581
 6 -5.47440500470047 -6.95210706400640  0.44851668146815
 6  2.13935490869087 -4.99421054125413  0.69839379377938
 6  3.36336087108711 -4.16104626552655  0.98939683948395
 6  4.02534192439244 -3.32079494959496  0.14303793879388
 6  3.76984132303230 -3.15580052135213 -1.37126663116312
 6  5.10969739553955 -2.49148419601960  0.59290308910891
 6  6.60121499279928 -2.88092101730173  0.08017948534853
 6  7.65988131173117 -1.83691304680468  0.45136082658266
 6  9.07847866916692 -2.02947778137814 -0.08399618211821
 6  9.64136051775178 -3.38743938433843  0.20959750205020
 6  10.03118369746975 -0.94452468986899  0.47594010951095
 6  11.38099540194019 -0.82173178007801 -0.30369913611361
 6  12.19097678627863  0.27000162766277  0.17609445704570
 6  13.58032048784878  0.40926579647965 -0.63474823802380
 6  14.49899819881988 -0.70903030563056 -0.38249240014001
 6  14.19038497809781  1.86317248884888 -0.22742199699970
 6  15.42609680008001  2.26689471767177 -1.02248724372437
 6  16.08137072147215  3.50178493129313 -0.65354596779678
 6  17.39492474157416  3.93430127172717 -1.32554648984898
 6  17.10893348304830  3.97375226692669 -2.85895812001200
 6  17.95568497459746  5.14649991529153 -0.71842130103010
 1 -2.93101882468247  1.23939821522152  3.86586705510551
 1 -6.64804278307831  5.35491087148715  0.93447243894389
 1 -8.63250365756576  1.12848315121512 -3.16249172797280
 1 -3.80442150695070 -3.27984329972997  1.92043010381038
 1 -1.88740586448645 -1.13453111471147  2.55592686878688
 1 -3.10437021612161 -2.74757791899190  4.41419496349635
 1 -3.61338213091309 -0.88750865526553  4.63542557235724
 1 -4.64619713141314 -1.89860894179418  3.93685763626363
 1 -2.38142345604561 -3.33641315861586 -0.15485610941094
 1 -1.68038587098710 -1.63499261556156  0.29031715331533
 1 -0.88083351685169 -2.72930422602260  2.38908312701270
 1 -1.44623934553455 -4.37525465666567  1.85000679867987
 1 -1.74806492029203  3.26247577197720  4.08710462016202
 1 -2.38581957205721  4.87075428142814  4.56420267796780
 1 -3.12549554455446  3.17122812031203  5.16759176517652
 1 -5.16162922682268  6.77981217561756  2.06126144754475
 1 -10.21072020552055  2.91064172127213 -3.21115436713671
 1 -9.91808260616062  4.75250909500950 -3.19701999269927
 1 -9.70357015681568  4.24927334133413 -5.26246144844484
 1 -8.06250575997600  4.94219396479648 -4.75113506850685
 1 -8.32603245224522  2.91491084988499 -4.83531345614561
 1 -8.00072766236624 -1.06986752965297 -4.80455145344534
 1 -8.19053003600360 -2.49958336343634 -4.34037667466747
 1 -9.32662274177418 -1.11351817521752 -3.71191809850985
 1 -4.25274263166317 -3.73726855345535 -1.45733902080208
 1  2.39912104510451 -6.12733067606761  0.84713066996700
 1  2.01975271867187 -5.04959193529353 -0.43591704130413
 1  3.68701082338234 -4.21099038083808  2.10514552215222
 1  2.68753374007401 -3.55172079317932 -1.81346388738874
 1  3.52157677097710 -2.10378393769377 -1.55840831133113
 1  4.47977015101510 -3.55865959515952 -2.19443836973697
 1  4.94675471637164 -1.46742316631663  0.44085596909691
 1  5.05665419271927 -2.57040867326733  1.57857273757376
 1  6.84852237893789 -3.88543173527353  0.46237412141214
 1  6.55781594199420 -3.00330793979398 -1.13650424592459
 1  7.16839577087709 -0.88515184028403  0.09000624612461
 1  7.85822792569257 -1.87103368646865  1.53830821612161
 1  9.05118922822282 -1.83255153035304 -1.09539287738774
 1  8.86177069576958 -4.05054382578258 -0.14431822422242
 1  10.53024236503651 -3.80022422452245 -0.44980509400940
 1  9.57982704410441 -3.66044713621362  1.16100654335434
 1  9.51946109670967 -0.00664493829383  0.39462482628263
 1  10.27724782228223 -0.91219775367537  1.60566010601060
 1  11.77458259955996 -1.84086411831183  0.05162078887889
 1  11.25589167586759 -0.81551445634563 -1.42448378197820
 1  11.72957399089909  1.21564599379938  0.18281872667267
 1  12.35603042634263 -0.02929173777378  1.24359263946395
 1  13.26094289498950  0.44372880518052 -1.76487872657266
 1  14.56855619391939 -0.75682389508951  0.79953563356336
 1  14.19942551355135 -1.66710572687269 -0.64771109260926
 1  15.59318030643064 -0.37335053325332 -0.76150304280428
 1  13.25786398059806  2.53889850895090 -0.60562234993499
 1  14.41276797709771  1.78810910011001  0.79746696059606
 1  16.21788344414441  1.42859147184718 -1.04350084078408
 1  15.10092567596760  2.19785369816982 -2.25693707340734
 1  15.23394479907991  4.50369574757476 -0.86783878197820
 1  16.14320709080908  3.53130977237724  0.32582248264826
 1  17.97324100550055  2.99585107630763 -1.01175025462546
 1  16.31971269166917  4.76448297719772 -3.11482384218422
 1  18.03445936943695  4.28834834813481 -3.22323692879288
 1  16.94514471467147  3.01596266626663 -3.19398743334333
 1  18.06009205640564  5.14391560906091  0.38245991019102
 1  18.95521304360436  5.46030018221822 -1.17137405180518
 1  17.27346889778978  5.96472597569757 -1.02549661096110
 1 -4.99977527892789 -7.66989642274227 -0.20751428912891
 1 -6.42998742904290 -7.12734982158216  0.77932143964396
 1 -4.64785295389539 -6.83125470107011  1.38797325392539
 8 -7.80315790739074  6.80839734053405 -0.32716050005001
 1 -9.13635193229323  6.24107975287529 -1.97675335813581

