%nproc=4
%Mem=2GB
# td=(NStates=1) iop(3/107=0140000000,3/108=0140000000) iop(3/107=0140000000,3/108=0140000000) CAM-B3LYP/6-31G(d,p) 

TD

0 1
12 -6.63214578667867  0.58490763486349  0.13352097159716
 6 -4.39541664816482 -1.99685810761076  0.48664894189419
 6 -4.27922973837384  2.88288992209221  0.98352123372337
 6 -8.96423912861286  3.12602662676268 -0.27599710141014
 6 -9.28721681928193 -1.75615864546455 -0.56827688638864
 7 -4.70314538643864  0.44134353205321  0.48732776487649
 6 -3.93986125172517 -0.72154186098610  0.55244579998000
 6 -2.52807622622262 -0.43633539273927  0.89052111441144
 6 -2.47212717851785  1.03465361416142  1.24903706620662
 6 -3.97092335523552  1.53205329052905  0.90182495719572
 6 -2.06042232793279  1.29592138803880  2.71499606240624
 6 -1.68261701010101 -0.82178474187419 -0.28418709240924
 6 -0.04886300460046 -0.88573027962796  0.20200927442744
 6  0.94889596879688 -0.97178441534153 -0.87131530533053
 8  0.90120018811881 -0.68772138463846 -2.02387337753775
 8  1.80145043164316 -1.80041033963396 -0.24761968446845
 7 -6.61721346354635  2.64833520352035  0.46371011891189
 6 -5.54331489238924  3.34985362856286  0.68948524472447
 6 -5.90276449164917  4.84137382218222  0.68634350295030
 6 -7.21113182658266  4.95066115661566  0.44363094639464
 6 -7.65359706360636  3.54093290169017  0.07293212461246
 6 -4.98810373067307  5.99569700020002  1.05735340334033
 6 -8.07545910721072  6.16314323442344  0.06872639633963
 8 -7.84498841504150  7.29498111471147  0.45232308910891
 7 -8.59563311681168  0.72271313051305 -0.47945059415942
 6 -9.47173084548455  1.79588432373237 -0.54791584388439
 6 -10.85177180748075  1.39856972807281 -0.91536731793179
 6 -10.87297165466546  0.14328523292329 -1.01303215871587
 6 -9.53627529082908 -0.33876203940394 -0.70167224392439
 6 -11.91032780808081  2.48920511361136 -1.04947959875988
 6 -12.15118823932393 -0.69663322562256 -1.20944907860786
 6 -12.43881074317432 -1.03959612481248 -2.76773956865687
 7 -6.77854433733373 -1.32857541884188 -0.18643128762876
 6 -8.00822348394839 -2.20358035473547 -0.28489168716872
 6 -7.48586617171717 -3.68229555195520 -0.37940895099510
 6 -6.24667028822882 -3.71241040194019 -0.14408266886689
 6 -5.76948323702370 -2.21822063656366  0.21297748204820
 6 -8.39913843734374 -4.73445082288229 -0.58494131003100
 6 -5.05997220172017 -4.45679147724773  0.18120614631463
 8 -5.00625237393739 -5.57208774707471 -0.04583407680768
 6 -3.84470819621962 -3.39214977417742  0.44621926912691
 6 -3.27962147304730 -3.58211438693869  1.77193690669067
 8 -3.69576481658166 -4.00379711451145  2.76486515631563
 8 -1.99576125102510 -3.33577988328833  1.62719265846585
 6 -1.21125964806481 -3.64741983208321  2.79705413061306
 6  2.89990188298830 -2.28317349424943 -1.33012425652565
 6  3.94735850325033 -1.22757975907591 -1.10485601790179
 6  5.20124087948795 -1.19153602500250 -1.75468166976698
 6  5.49023300710071 -1.94345748044804 -3.18473545574557
 6  6.12925675027503 -0.12148980188019 -1.30570712921292
 6  7.38061675567557 -1.03705948804880 -0.58558529582958
 6  8.61131369166917 -0.02076644204421 -0.13669214971497
 6  9.90119320872087 -0.81412833313331  0.36070776507651
 6  9.59750726702670 -1.65848466316632  1.65098946774677
 6  10.93152548254825  0.31807666186619  0.47283212161216
 6  12.33609888038804 -0.28722741554155  0.37885619681968
 6  13.23404494709471  0.79825710041004  0.33780667906791
 6  14.71240757595760  0.18873215131513  0.53420808290829
 6  15.15971095919592 -0.46179846034603  1.83773369736974
 6  15.76749637803781  1.31896679867987  0.32299550485049
 6  17.07133661176118  0.90401562596260 -0.01244811871187
 6  18.07989753715372  1.87278446964696 -0.18634878167817
 6  19.60647284838484  1.28776727152715 -0.62230231393139
 6  19.82613241454145  0.57099252955296 -2.16595238643864
 6  20.62589975887589  2.57226864486449 -0.56199129502950
 1 -3.66261689999000  3.48702995399540  1.53963336503650
 1 -9.78593257575758  3.76688577367737 -0.52824645854585
 1 -9.98368085968597 -2.52614301360136 -0.90514334023402
 1 -2.29685220202020 -0.93490110791079  1.61189123742374
 1 -2.04819415801580  1.82042251845185  0.42011846524653
 1 -1.02695407910791  1.09888820322032  2.73675438653865
 1 -2.16255442934293  2.39595817221722  2.90751686948695
 1 -2.58630096259626  0.67074495979598  3.69844571367137
 1 -1.73974299459946 -1.89739101210121 -0.62748053485348
 1 -1.61525669466947  0.06712523962396 -0.90016980778078
 1  0.05529352765277 -0.10893232653265  0.83147901310131
 1 -0.04799851965197 -1.93248958275828  0.62227245934594
 1 -3.66220075047505  5.88215604350435  0.61596655435543
 1 -5.58733901450145  7.07175985188519  1.32266917301730
 1 -4.71781280948095  5.57628658965897  1.87521529382938
 1 -9.21043405750575  5.81705681488149 -0.45278165396540
 1 -12.13076262986299 -1.67122799029903 -0.49620404760476
 1 -13.39004521952195 -0.27261086128613 -0.85795343174317
 1 -13.34247207030703 -1.75658777417742 -2.80713783088309
 1 -12.58572553635364 -0.28614119261926 -3.39809197869787
 1 -11.46070289468947 -1.32865618261826 -3.30556716411641
 1 -9.36828601190119 -4.24488104370437 -1.38625085308531
 1 -7.54050926552655 -5.68253826642664 -1.28532818471847
 1 -9.00684796479648 -5.20954291549155  0.39257386688669
 1 -3.09766934833483 -3.32957668256826 -0.09806811361136
 1  3.01920353575357 -3.09869714351435 -0.82796851395140
 1  2.61189547834783 -2.51377729272927 -2.36806704200420
 1  3.95047237493749 -0.63123587198720 -0.15789218761876
 1  4.84354741174117 -2.17210068256826 -4.06449656465647
 1  6.16097967636764 -1.61953062846285 -3.68758998289829
 1  6.01478530593059 -2.54570718501850 -2.96773095689569
 1  6.48326874877488  0.50707604500450 -2.20529314651465
 1  5.90109521892189  0.74809035683568 -0.48267253065307
 1  6.94135531443144 -1.70342853995400  0.13208493009301
 1  7.62241764016402 -1.77754654495450 -1.46784626052605
 1  8.72989512091209  0.78921951675168 -1.20339312461246
 1  7.89802830093009  0.72616780498050  0.54557026542654
 1  10.35069751685169 -1.41850929462946 -0.52217937553755
 1  8.71523376767677 -2.21630044574457  1.48976733753375
 1  10.53354942434243 -2.45322920412041  1.77200909230923
 1  9.71672488408841 -0.69946116851685  2.36191749684968
 1  10.87951158895889  1.36354911481148 -0.28370554215421
 1  10.71798154475447  0.94039291489149  1.54991887218722
 1  12.77323486568657 -1.22601504100410  1.08948263156316
 1  12.42451460546055 -0.96696491709171 -0.51494449194919
 1  13.06432130213021  1.72967251225123 -0.34678358295830
 1  12.86984902970297  1.07243149444944  1.55748153755376
 1  15.03849527532753 -0.56058357435744 -0.20407859905991
 1  15.18825872577258  0.37345774127413  2.51266403940394
 1  14.47597487098710 -1.19254692659266  1.87304480258026
 1  16.13307034013401 -0.82078566166617  1.89047552525252
 1  15.73492462736274  2.02070206360636 -0.51545151985199
 1  15.93510754335434  2.08940847634764  1.25021334453445
 1  17.42979429452945 -0.01357818721872  0.54737492419242
 1  17.00721824602460  0.03667183638364 -0.97228860626063
 1  17.64947995509551  2.75316186398640 -0.83930691899190
 1  18.49811980808081  2.55136904380438  0.66666333683368
 1  19.83897645884589  0.71065391159116  0.34701805260526
 1  19.71127944594459  1.18701375097510 -3.01481360656066
 1  20.59832412241224  0.08120631883188 -2.43818795219522
 1  19.19921264826483 -0.55649336773677 -2.15107318201820
 1  20.57639441804180  3.24189376847685  0.29948070167017
 1  21.90341808210821  2.42989957265727 -0.84726744174417
 1  20.27243389628963  3.44591207840784 -1.23938873517352
 1 -0.42395802090209 -3.65561831123112  2.13267161516152
 1 -1.33144282528253 -4.34696196989699  3.41774241084108
 1 -1.36539055235523 -2.63944242134213  3.30038419161916
 8 -11.79180755505551  3.60232503170317 -0.73932574627463
 1 -12.75172568406841  2.15354659475948 -1.15266587158716

