%nproc=4
%Mem=2GB
# td=(NStates=1) iop(3/107=0140000000,3/108=0140000000) iop(3/107=0140000000,3/108=0140000000) CAM-B3LYP/6-31G(d,p) 

TD

0 1
12 -6.74709728182818  0.56768591269127  0.14472209170917
 6 -4.44993209970997 -1.98833725552555  0.25485576257626
 6 -4.25118693409341  2.66393802690269  1.06094897649765
 6 -8.96322902760276  3.15075910001000 -0.33026252795280
 6 -9.20073817141714 -1.70786381598160 -0.80937099579958
 7 -4.69179425132513  0.44245364306431  0.47150618271827
 6 -3.97852511811181 -0.76040574737474  0.73168372377238
 6 -2.56685010361036 -0.61333309250925  1.01406346864686
 6 -2.56513647944794  1.01856200500050  1.18056021852185
 6 -3.89536579947995  1.46863694889489  0.77358213291329
 6 -2.13804008970897  1.09932172807281  2.59689425222522
 6 -1.40864961336134 -1.06379894329433 -0.14863353705371
 6 -0.05106322462246 -1.14278598519852  0.49586866036604
 6  0.93090416961696 -1.37237447434743 -0.63217139093909
 8  1.00912098019802 -0.89770238273827 -1.67839883008301
 8  1.80223050965097 -2.26524682328233 -0.00848577107711
 7 -6.65894763696370  2.56526689668967  0.30588433633363
 6 -5.56818737963796  3.24560320352035  0.68073436963696
 6 -5.74617883308331  4.69560924572457  0.71255612421242
 6 -7.17127784118412  4.77136322682268  0.40386696999700
 6 -7.76396810071007  3.52816162456246  0.22649748114812
 6 -4.68022294259426  5.89595702620262  1.05086275427543
 6 -7.97865942724272  6.05097201730173  0.38059758345835
 8 -7.45314923112311  7.25755737233723  0.34481233803380
 7 -8.69749330283028  0.77079793899390 -0.48832148124813
 6 -9.42057572997300  1.91360609590959 -0.56887794009401
 6 -10.83921055135514  1.57521739283928 -0.88322410361036
 6 -10.81165552305231  0.21834273867387 -1.02338319381938
 6 -9.58541020432043 -0.21116928012801 -0.83200527722772
 6 -11.89830660596060  2.51199739283928 -0.94283893469347
 6 -12.15882900340034 -0.64373793609361 -1.25845397909791
 6 -12.68325518761876 -0.73515568076808 -2.85937873257326
 7 -6.95877236013601 -1.29642220352035 -0.16041868636864
 6 -8.00491315291529 -2.13961395809581 -0.50960415841584
 6 -7.51110869596960 -3.61964928732873 -0.72480349044905
 6 -6.38038365956596 -3.52313147404740 -0.16272453305331
 6 -5.90946723542354 -2.08915773027303  0.00262644694469
 6 -8.35184370787079 -4.75670304810481 -0.79263207910791
 6 -5.18526473097310 -4.45133093119312  0.00610863656366
 8 -4.91675342404240 -5.51628216651665 -0.13056254965497
 6 -4.01210493589359 -3.42257281648165  0.41316596379638
 6 -3.40648415931593 -3.61425760126013  1.78099781278128
 8 -3.94585982608261 -3.86440317511751  2.78484715451545
 8 -1.98910058495850 -3.69210551585159  1.65823576277628
 6 -1.20484900700070 -4.15228031813181  2.67174159935994
 6  2.93932582538254 -2.52024720162016 -0.98360960506051
 6  4.07610137753775 -1.58975597669767 -0.50817634993499
 6  5.08779953535354 -1.20091696309631 -1.41988819041904
 6  5.25223920772077 -1.81509464416442 -2.75875285748575
 6  6.00577440204020 -0.05233288618862 -0.83622018051805
 6  7.35216391039104 -0.74225000710071 -0.45443218051805
 6  8.53260582088209  0.31726736133613 -0.27025550605061
 6  9.90709379877988 -0.32558947924792  0.24723641794179
 6  9.86899441574157 -0.93401221592159  1.67559192799280
 6  10.88847117711771  0.78191304550455  0.20693553195320
 6  12.21227649814982  0.13070437763776  0.43195150635064
 6  13.38278982158216  1.17904517921792  0.45444834323432
 6  14.71562789798980  0.35234851295130  0.54646930903090
 6  15.06504149224923 -0.18325060556056  1.95420534453445
 6  15.89100872927293  1.50980588258826  0.26024923022302
 6  17.24336381448145  0.84241946634663  0.15043816991699
 6  18.25893544094410  1.81866905810581 -0.51595174197420
 6  19.70206240734073  1.10679917471747 -0.95438552225223
 6  19.59481928322833  0.22430786108611 -2.39594538573857
 6  20.92918008690869  2.13597501550155 -1.14269936583658
 1 -3.32062270057006  3.40099135013501  1.31651105280528
 1 -9.72668665116512  3.65242432753275 -0.54155778967897
 1 -9.93553604520452 -2.22916331563156 -1.32721554745475
 1 -2.40989350615062 -1.11652927072707  1.69353940224022
 1 -1.77531687028703  1.42427290349035  0.60074652805281
 1 -1.13017440114011  0.86449476387639  3.07002771387139
 1 -2.59920809470947  2.27527610401040  3.09582570037004
 1 -2.86001833433343  0.23489137443744  3.17352322142214
 1 -2.05296431673167 -1.97021829482948 -0.55521330813081
 1 -1.41223639263926 -0.46177765066507 -0.86706649744974
 1  0.03567156545655 -0.03913534683468  0.92997886308631
 1  0.14839111931193 -1.85222155595560  1.22183241534153
 1 -3.74161869226923  6.01741956985699  0.27167212491249
 1 -5.35413569416942  6.89365204110411  0.63044995109511
 1 -4.39861088928893  5.88864782578258  2.15914368666867
 1 -9.01151416551655  5.80173528272827  0.00819444364436
 1 -11.83745329892989 -1.71894276177618 -1.06559098629863
 1 -13.01453766876688 -0.08990259045905 -0.96180381678168
 1 -13.81589941304130 -1.27322943834383 -2.82230934803480
 1 -12.58284524832483  0.18048547004700 -3.51366353585359
 1 -12.13045987038704 -1.23733705070507 -3.46899350675067
 1 -8.73738292159216 -4.88893544914491 -1.91243347134713
 1 -7.77436265086509 -5.61451146374637 -0.89625927782778
 1 -9.04593187318732 -5.00793275447545 -0.12277766826683
 1 -3.08728831023102 -3.19296302120212 -0.53722202900290
 1  3.03111472687269 -3.67417469126913 -0.76168188528853
 1  2.92259654845485 -2.19809572457246 -2.09599983528353
 1  3.97922525022502 -0.97171992039204  0.48510211181118
 1  4.22275533253325 -1.59387285978598 -3.28311842684268
 1  6.08688226662666 -1.20691936733673 -3.19462068596860
 1  5.46085991339134 -2.83600621492149 -2.60931511531153
 1  6.47510793269327  0.73288862626263 -1.83494611181118
 1  5.66198130753075  0.43238878667867 -0.18984324772477
 1  6.93617479637964 -1.06584478157816  0.44135585718572
 1  7.58230362876288 -1.72988177847785 -0.75520499639964
 1  8.70271240264026  0.76078667346735 -1.39594237953795
 1  8.01008950705071  1.14632982118212  0.25299100750075
 1  9.97730017711771 -1.28971641534153 -0.67563472107211
 1  9.24268651295130 -1.66327514321432  1.62935129592959
 1  10.87798386778678 -1.39491337253725  2.05854774617462
 1  9.88715192679268 -0.16877810021002  2.58449975507551
 1  10.94751838963896  1.28719147904791 -0.82711988358836
 1  10.83273301990199  1.42523139873987  1.07209108940894
 1  12.25336287848785 -0.61143358285829  1.08540222352235
 1  12.07354950895090 -0.58993721432143 -0.50079307680768
 1  13.45585045504551  1.59144868986899 -0.54509341394139
 1  13.34187623242324  1.74790904220422  1.43845963536354
 1  14.83857528332833 -0.74351186718672 -0.15205339653965
 1  15.03404330423042  0.75340573607361  2.62750552355236
 1  14.41514878837884 -0.95859353125313  2.28646614471447
 1  16.23124015711571 -0.66476005910591  2.01563804150415
 1  15.61994312921292  1.97494748814881 -0.63726370107011
 1  15.69471350395039  2.53783331883188  1.12834115731573
 1  17.34786610171017  0.13643681428143  1.02811299799980
 1  17.25418294249425  0.17073524272427 -0.75948732613261
 1  18.09619462656266  2.06119266706671 -1.49345233353335
 1  18.56245624172417  2.88523243014301 -0.12232556205621
 1  19.98710127132713  0.52475532173217 -0.01511816101610
 1  19.38517683568357  0.75897094669467 -3.41976410161016
 1  20.40076436643664 -0.69220102190219 -2.76551068446845
 1  18.61576430343034 -0.51792951135114 -2.22059013371337
 1  21.46486326492649  2.47627720682068  0.15040579417942
 1  21.95607334763476  1.65758234093409 -2.01007372237224
 1  20.32731938483848  3.31237872507251 -1.36208100440044
 1  0.08815319021902 -3.81810455985599  2.12347069506951
 1 -1.18522820382038 -5.36015328902890  2.73229386598660
 1 -1.40399441274127 -3.57640611771177  3.55068922212221
 8 -11.89256763106311  3.80120491969197 -0.71899371307131
 1 -13.09305981748175  2.29321056115611 -1.47549815481548

