%nproc=4
%Mem=4GB
# td=(NStates=1) iop(3/107=0140000000,3/108=0140000000) iop(3/107=0140000000,3/108=0140000000) CAM-B3LYP/6-31G(d,p) 

TD

0 1
12 -5.68185969256926  1.21300617491749  0.20509911511151
 6 -5.01550193739374 -2.22644110741074 -0.29148601540154
 6 -3.30626941604160  1.14288457325733  2.75287066036604
 6 -6.24301309700970  4.56067933213321  0.64573478227823
 6 -7.86892265936594  1.18506935763576 -2.49356703020302
 7 -4.43839809310931 -0.28228642044204  1.05986732553255
 6 -4.22342587008701 -1.59786348794879  0.72002435203520
 6 -3.20391351585159 -2.36662996579658  1.55191955565557
 6 -2.80466363736374 -1.34000689158916  2.60151670777078
 6 -3.62787021442144 -0.01126375407541  2.14302888808881
 6 -3.28085112451245 -1.72910635203520  4.01661436083608
 6 -2.01069626282628 -2.71553896319632  0.65672097759776
 6 -0.85382702620262 -3.47693527412741  1.48916250425043
 6  0.28629372987299 -3.79253309400940  0.62043023772377
 8  0.51748181248125 -3.47160447404741 -0.55892212641264
 8  1.10803764946495 -4.67031664896490  1.32626723402340
 7 -4.93374419071907  2.69092846974698  1.42468269997000
 6 -3.92350444024402  2.37937535923592  2.38612921622162
 6 -3.68803830753075  3.69103760596060  3.14171472767277
 6 -4.50845139783978  4.64756628492849  2.56151542284228
 6 -5.27380348454845  3.99856795199520  1.56374246654665
 6 -2.76713207630763  3.79682705850585  4.35686987638764
 6 -4.61920845144514  6.06973439393939  3.03008251305131
 8 -3.84505455345535  6.57499538753875  3.83467736763676
 7 -6.83746754665467  2.59951984778478 -0.81250290659066
 6 -6.88073078787879  3.94719433663366 -0.46104779347935
 6 -7.91899708610861  4.64772149694970 -1.20686479597960
 6 -8.39830928422842  3.70002693259326 -2.09106805120512
 6 -7.73842273277328  2.48282429122912 -1.81037698419842
 6 -8.45331832273227  6.04043395279528 -1.01351085988599
 6 -9.48546290959096  3.70396079427943 -3.13265789858986
 6 -8.95469692339234  4.05043318951895 -4.64979138313831
 7 -6.32460087908791 -0.19728474617462 -1.06499159115912
 6 -7.25130466006601  0.01088501990199 -2.13028723942394
 6 -7.43055056225623 -1.31631333493349 -2.79781230383038
 6 -6.57428697749775 -2.14895446724672 -2.11778794449445
 6 -5.93454186958696 -1.37969153425343 -1.05711184158416
 6 -8.44646010381038 -1.69581970797080 -3.87623451965197
 6 -6.23920758785879 -3.54331991589159 -2.02507606270627
 8 -6.61191558705871 -4.60088778717872 -2.55629189428943
 6 -5.01190975307531 -3.56504455705570 -0.88145046484648
 6 -5.28704618201820 -4.67914335543554  0.12382605440544
 8 -5.89009478107811 -4.43280228832883  1.13582994639464
 8 -4.99285898409841 -5.79910110651065 -0.31331447604760
 6 -5.41833939813981 -6.87314916821682  0.63524535433543
 6  2.26419739293929 -5.13810493069307  0.68529248364837
 6  3.45828036303630 -4.14732489338934  0.96951485128513
 6  3.93385277547755 -3.28224109420942  0.04620825582558
 6  3.44209854875488 -3.06850179147915 -1.41071057555756
 6  5.14006043184318 -2.43510855845585  0.51465526432643
 6  6.48854372567257 -2.74439736493649 -0.03203173577358
 6  7.68584390799080 -1.83915327082708  0.56045173567357
 6  8.98635945724572 -2.01308614221422 -0.08065584808481
 6  9.58434481618162 -3.43526416681668  0.14571111341134
 6  9.90558113721372 -0.91952218961896  0.44075659115912
 6  11.33549085148515 -0.88020762766277 -0.22256102230223
 6  12.14845253385339  0.31063569106911  0.22340918851885
 6  13.51617407320732  0.45330019991999 -0.56139090229023
 6  14.28799709870987 -0.76449585218522 -0.39805395629563
 6  14.19267520712071  1.79466563816382 -0.15936519131913
 6  15.44287847824782  2.18142617081708 -0.91108610361036
 6  16.09140172457246  3.53386813961396 -0.58143875707571
 6  17.39518476757676  3.90540838243824 -1.33209714491449
 6  17.36767935763576  3.99851474317432 -2.88259048324832
 6  17.80458986508651  5.29745501080108 -0.72609206810681
 1 -2.52948867166717  1.15489976537654  3.43393386178618
 1 -6.61832981178118  5.57829320972097  0.74993398509851
 1 -8.60802120932093  1.03446374927493 -3.34321980078008
 1 -3.68503956875688 -3.18724403980398  1.88834689548955
 1 -1.68114523842384 -1.09912757435744  2.67041831793179
 1 -2.92509228832883 -2.77933109430943  4.33772731673167
 1 -2.79560035273527 -1.15135503990399  4.74406643644364
 1 -4.27358987068707 -2.14581366226623  4.10322427292729
 1 -2.11901721542154 -3.35590510781078 -0.28925954975498
 1 -1.42902073447345 -1.84300341664166  0.28026614821482
 1 -0.43514894839484 -3.11309260486049  2.41453567226723
 1 -1.22546726832683 -4.22794992619262  2.26688848684869
 1 -1.73166328012801  3.73173269766977  3.81329723942394
 1 -2.84200519061906  4.82975018101810  4.75321157885789
 1 -2.81597459245925  2.95398639613961  5.05634064006401
 1 -5.59540260416042  6.59518371277128  2.62144746614661
 1 -10.20853998749875  2.84670532763276 -3.25995924762476
 1 -10.20717151505151  4.44989883398340 -2.89520981168117
 1 -9.69230903070307  4.29820823482348 -5.29055425772577
 1 -8.40495000440044  5.16550629602960 -4.53927388238824
 1 -8.13535338433843  3.30968032683268 -5.05343526832683
 1 -8.06099368896890 -1.34921546444644 -4.88098909720972
 1 -8.41972295529553 -2.89404280938094 -3.97579021602160
 1 -9.53800387988799 -1.41824864826483 -3.69523643034303
 1 -4.07295465286529 -3.74213904050405 -1.52098538543854
 1  2.53979511251125 -6.18570651365136  0.99781573847385
 1  2.12960370377038 -5.30431740784078 -0.30327377697770
 1  3.66989911221122 -3.98259754155416  1.99679468706871
 1  2.54537952465247 -3.50614623572357 -1.55983852485249
 1  3.46366097939794 -2.01283484278428 -1.72192466296630
 1  4.42893506750675 -3.46592032123212 -2.18407733363336
 1  4.86069611051105 -1.58979540354035  0.31274315781578
 1  5.07589611691169 -2.56342797519752  1.54135901620162
 1  6.48545607230723 -3.88819201130113  0.23311119511951
 1  6.63465362576258 -2.61485909490949 -1.11307190269027
 1  7.16731566286629 -0.90900422552255  0.33680092559256
 1  7.70068217111711 -2.05225180828083  1.73929831513151
 1  8.69234334363436 -1.74088236343634 -1.15629896799680
 1  8.75809032773277 -4.00508928032803 -0.35597939033903
 1  10.58532787358736 -3.68544274637464 -0.40583069656966
 1  9.65239430083008 -3.55415650715071  1.32132257495750
 1  9.16231538213821  0.01192691889189  0.48522388618862
 1  10.01638173567357 -1.27589412331233  1.57009654965497
 1  11.81545668696870 -1.80153018491849  0.10456608340834
 1  11.23195928262826 -0.86399930483048 -1.22359369296930
 1  11.55481651515152  1.38872330153015  0.08089853465347
 1  12.33236806010601  0.06839803120312  1.23496177637764
 1  13.20764756545655  0.52042647494749 -1.80494273297330
 1  14.46733607190719 -1.16548476117612  0.70882656265627
 1  13.62747831883188 -1.38670768706871 -1.09646596809681
 1  15.43778476687669 -0.92944614281428 -0.99280617311731
 1  13.38765695989599  2.79145376447645 -0.29799158685869
 1  14.70371707200720  1.66678696789679  0.90291750565057
 1  16.04031568736874  1.35894450715071 -0.73562005270527
 1  15.20151573497350  2.01760567336734 -2.04826620632063
 1  15.41601300590059  4.36642202020202 -0.84774677277728
 1  16.06481925202520  3.47305394679468  0.64215411581158
 1  18.16517019841984  3.14622611381138 -1.04237331693169
 1  16.57502822322232  4.73154968386839 -3.16279863966397
 1  18.30996692019202  4.19393890719072 -3.20758536363636
 1  17.12842304250425  3.02261333133313 -3.24323235783578
 1  18.10929697689769  5.31592280978098  0.35462712691269
 1  18.72737025932593  5.44606875907591 -1.17900481488149
 1  17.05771732263226  5.88887839093909 -0.95827988928893
 1 -5.15716101750175 -7.93055248834883  0.19161562386239
 1 -6.52424685498550 -6.87065415201520  0.83797730523052
 1 -4.79589775837584 -6.89004057965797  1.57426188278828
 8 -8.00585817741774  6.85842234303430 -0.27344512851285
 1 -9.38212650975098  6.04160980588059 -1.72806848964897

