%nproc=4
%Mem=2GB
# td=(NStates=1) iop(3/107=0140000000,3/108=0140000000) iop(3/107=0140000000,3/108=0140000000) CAM-B3LYP/6-31G(d,p) 

TD

0 1
12 -6.84320689278928  0.53893303740374  0.19280690019002
 6 -4.48785589208921 -2.10079850165017  0.45096537353735
 6 -4.20327214261426  2.74391602470247  1.03679656125613
 6 -8.89351205590559  3.27765178927893 -0.29148865056506
 6 -9.20096819441944 -1.52324535413541 -0.88171823052305
 7 -4.59929500140014  0.42455185288529  0.80176920902090
 6 -4.00322758835884 -0.83927363416342  0.75824638003800
 6 -2.53240665926593 -0.50823258245825  1.21222328462846
 6 -2.37527749354935  0.84897504630463  1.57374953745375
 6 -3.74735099799980  1.46576666186619  0.97341211591159
 6 -2.21127741344134  1.21326312221222  3.06499106190619
 6 -1.69681843024302 -1.03244580798080  0.07453878017802
 6 -0.25509362766277 -1.36906861346135  0.59069814331433
 6  0.57142822202220 -1.47168440534053 -0.52186035983598
 8  0.51929199729973 -1.02171478397840 -1.65055604580458
 8  1.88686897349735 -2.15338563716372 -0.22438736123612
 7 -6.65306704890489  2.69429979998000  0.47584133203320
 6 -5.61911247214721  3.27946658985899  0.84134043024302
 6 -5.79044325952595  4.77814749954995  0.88891375997600
 6 -7.10575128852885  4.94249033953395  0.52897948124812
 6 -7.79170087398740  3.63304211261126  0.26267109850985
 6 -4.78659357965797  5.76800423092309  1.10059772777278
 6 -7.80410197149715  6.17985490559056  0.31083060676068
 8 -7.24460837703770  7.31547316391639  0.29401725852585
 7 -8.80756430993099  0.77824868406841 -0.53143579267927
 6 -9.40771444384438  1.96603133843384 -0.45757680998100
 6 -10.74243087338734  1.58770864196420 -1.04681046224622
 6 -10.93785814331433  0.21548245264526 -1.11554240974097
 6 -9.63560522382238 -0.35015317851785 -0.84834691139114
 6 -11.81800857615761  2.55987218031803 -1.24220887168717
 6 -12.12105522602260 -0.42864642694269 -1.56176431013101
 6 -12.05858272037204 -0.99787195239524 -3.10917371207121
 7 -6.85493197609761 -1.47279984128413 -0.25316796129613
 6 -8.04047670927093 -2.29747974467447 -0.71158435643564
 6 -7.52306989208921 -3.67422474487449 -0.82389339943994
 6 -6.27488310951095 -3.61529068996900 -0.30633889448945
 6 -5.83970025872587 -2.36345516001600 -0.09447326302630
 6 -8.39080760426043 -4.86925430323032 -1.05089790569057
 6 -5.16935313981398 -4.40480627872787 -0.08791076537654
 8 -4.85910765946595 -5.49819035733573 -0.26543603700370
 6 -3.87434115951595 -3.48198875807581  0.52257690489049
 6 -3.59677318821882 -3.81784796029603  1.81581129412941
 8 -4.29779501960196 -4.05449218401840  2.87680635043504
 8 -2.19719139403940 -3.78716502180218  2.05576551575158
 6 -1.73663218531853 -4.26980207030703  3.24855928112811
 6  2.95683757655766 -2.31225640254025 -1.18961020512051
 6  4.14842861026103 -1.30328732983298 -0.74085961826183
 6  5.10014076947695 -1.16096296769677 -1.51026722832283
 6  5.39488347214721 -1.78026116081608 -2.73165014721472
 6  6.08330215481548  0.02307465456546 -1.10303686218622
 6  7.34299299329933 -0.64195997809781 -0.63997073437344
 6  8.46580914121412  0.39399503410341 -0.43561204170417
 6  9.79270235963596 -0.39772669296930  0.18202989728973
 6  9.62842035833583 -1.08139695439544  1.71835620442044
 6  10.98567089708971  0.68571342554255  0.09982482088209
 6  12.46710198069807  0.03849515671567  0.25460377157716
 6  13.50570211281128  1.12219949464946  0.50058295669567
 6  14.80795713091309  0.47709098719872  0.64048871097110
 6  15.00099508760876 -0.09867214771477  1.96648657265727
 6  16.13173280168017  1.40606550855085  0.22090529582958
 6  17.37490696879688  0.73742896729673 -0.14522139603960
 6  18.46443599099910  1.92817000820082 -0.60191033783378
 6  19.76315851695169  1.29138763356336 -1.15271535523552
 6  19.75913571487149  0.29307473777378 -2.31821761296130
 6  20.79771694059406  2.56934835283528 -1.20146524242424
 1 -3.48075871417142  3.68788003900390  1.31245064676468
 1 -9.88126210871087  4.16148523362336 -0.43255688958896
 1 -9.77614010561056 -2.22482288158816 -1.43208603450345
 1 -2.26951946874687 -1.00074769256926  2.03523357165717
 1 -1.23468280688069  1.10563103930393  0.75321177457746
 1 -1.12871425512551  0.80070838523852  3.10663137423742
 1 -1.96921509540954  2.36691526792679  3.54465058285829
 1 -3.15154748724873  0.98128601390139  3.40509637873787
 1 -1.95869488978898 -2.08320959395940 -0.14481226802680
 1 -1.80573574257426 -0.33890536343634 -0.75282507330733
 1  0.16370436873687 -0.62188362166217  1.33977984318432
 1 -0.33695741554156 -2.45864219801980  1.46876710881088
 1 -3.82270680108011  5.22047987588759  0.62573753145315
 1 -5.01240152075207  6.97615029092909  0.56090299639964
 1 -4.65253628182818  6.14499346034603  2.40414818711871
 1 -8.55466848094810  6.06354146334633 -0.08985536133613
 1 -12.18824837843784 -1.32104297179718 -0.83652808000800
 1 -12.95644185918592  0.17397379717972 -1.53000063646365
 1 -12.97510533363336 -1.53695581098110 -3.36263338043804
 1 -12.39757672147215 -0.00323290179018 -3.90260242974298
 1 -11.14526135053505 -1.56824014101410 -3.24359096649665
 1 -8.77849703300330 -4.75947250285029 -2.05054728272827
 1 -7.65531074567457 -6.00767077967797 -1.18460811271127
 1 -9.34787206720672 -5.21097305850585 -0.46797218771877
 1 -3.01589117051705 -3.64950867576758 -0.09658796559656
 1  3.20704231963196 -3.46457373117312 -1.20289600670067
 1  2.96362065086509 -2.18902481748175 -2.03464369966997
 1  3.79358668636864 -0.74669741814181  0.21420502210221
 1  4.90511356835684 -1.57457092959296 -3.53212332733273
 1  6.14217779617962 -1.48548722412241 -2.96397762166217
 1  5.36563039043904 -2.84969758405841 -2.49339352315232
 1  6.58266868876888  0.86448178557856 -1.80350296749675
 1  5.72032714211421  0.84494004180418 -0.17842210561056
 1  7.08620979987999 -1.33257145424543  0.77529925152515
 1  7.73656905530553 -1.89687847814781 -1.27606708260826
 1  8.70776290769077  0.83092368716872 -1.47048983428343
 1  8.26520501860186  1.42569775797580  0.35036074447445
 1  10.17032948004800 -1.24398184188419 -0.86536369396940
 1  8.92898514281428 -1.82357117281728  1.42155051585158
 1  10.72052812221222 -1.60886476767677  1.68361025242524
 1  9.30780399199920 -0.44300552295230  2.44204550965096
 1  10.98415205300530  1.30674343424343 -0.95980315191519
 1  10.76845659225923  1.73849272487249  0.66663054335434
 1  12.44749229142914 -0.66639907940794  1.25059874317432
 1  12.86722887688769 -0.60542876347635 -0.55920891839184
 1  13.38033290329033  1.71085063006301 -0.62939184378438
 1  13.06059810461046  1.63331758305831  1.66125191459146
 1  15.06779820562056 -0.42015953195320 -0.05840403160316
 1  14.69460936083608  0.39672006750675  2.69550232323232
 1  14.32926019951995 -1.10694836673667  1.96458395649565
 1  16.14336136923692 -0.68545212831283  2.29151562926293
 1  15.87549868476848  2.11116110951095 -0.40022999769977
 1  16.28722275487549  1.98594813031303  1.14273259645965
 1  17.85423673877388  0.27717088768877  0.88403859055906
 1  17.43424094829483  0.17050521972197 -1.07643902130213
 1  17.63223823092309  2.25931247904791 -1.54401739003901
 1  18.63673366946695  2.61089499639964  0.16149281978198
 1  20.14183674487449  0.56193904010401 -0.27113376257626
 1  19.25475379337934  1.17284233383338 -3.05551767696770
 1  20.94992928292829 -0.03944574637464 -2.63885801920192
 1  19.12644537153716 -0.56099381778178 -1.92058013271327
 1  21.01514829342934  3.32253183228323 -0.14155340174017
 1  21.86497423772378  2.57398398109811 -1.53829654465447
 1  20.15526217911791  3.11351883908391 -1.79640443674367
 1 -0.55296092119212 -4.68500124952495  2.97857620562056
 1 -2.33869355035503 -5.15699297299730  3.52012264886489
 1 -2.10590460376037 -3.29967844494449  4.12054620782078
 8 -11.65904427872787  3.78876367556756 -0.90134194789479
 1 -12.69111962346235  2.41557279737974 -1.88132873787379

