%nproc=4
%Mem=2GB
# td=(NStates=1) iop(3/107=0140000000,3/108=0140000000) iop(3/107=0140000000,3/108=0140000000) CAM-B3LYP/6-31G(d,p) 

TD

0 1
12 -6.72237480958096  0.62732187628763  0.15809342884288
 6 -4.44892199869987 -2.08885730753075  0.39625990299030
 6 -4.18034985038504  2.68350998409841  0.74189707130713
 6 -8.98804150885089  3.28218224232423 -0.04980448214821
 6 -9.14770286788679 -1.59743277287729 -0.66718677737774
 7 -4.68946401830183  0.29113851155116  0.58060709280928
 6 -3.95535280088009 -0.84468417521752  0.57114767016702
 6 -2.54418783738374 -0.61269302850285  1.02738480078008
 6 -2.42120208600860  0.93292344114411  1.29255141764176
 6 -3.83153941684168  1.38175826102610  0.87179195389539
 6 -1.93813009870987  1.21768356425643  2.80032459525953
 6 -1.67913666206621 -1.09188175157516 -0.15104377807781
 6 -0.19631775007501 -1.50258196479648  0.40887996149615
 6  0.66281736093609 -1.53364060096010 -0.82184035783578
 8  0.51868193629363 -0.97129974247425 -1.86145713591359
 8  1.87557784438444 -2.26650694929493 -0.37865278777878
 7 -6.63307504970497  2.49389975997600  0.28676242414241
 6 -5.43061362226223  3.20850949414942  0.61937823402340
 6 -5.73861807700770  4.61501118591859  0.73086795539554
 6 -7.12814352775278  4.73481957245725  0.41584816811681
 6 -7.64467617151715  3.52581138953895  0.18949378077808
 6 -4.70056497679768  5.73078050855085  0.94021168916892
 6 -7.73213477477748  6.01399831993199  0.05102462616262
 8 -7.24721863806381  7.21378299489949  0.40669852665266
 7 -8.74994854835484  0.81733259245925 -0.45842849194919
 6 -9.38202187458746  1.99128386368637 -0.58022907520752
 6 -10.68453508380838  1.61911178227823 -0.80755653685369
 6 -10.93803816131613  0.27739864426443 -0.95167602310231
 6 -9.68416007930793 -0.25895405860586 -0.55332740944094
 6 -11.92502927822782  2.49599579267927 -0.81710636143614
 6 -12.06653977447745 -0.46014957725773 -1.39793792749275
 6 -12.00244710681068 -0.84238640384038 -2.94181697639764
 7 -6.92038852175217 -1.42209477077708 -0.08390103460346
 6 -7.94105676727673 -2.28124812151215 -0.38788198619862
 6 -7.53759134423442 -3.48373569596960 -0.32897390749075
 6 -6.11638725992599 -3.54426358725873 -0.14233249384939
 6 -5.85658194689469 -2.22943175767577  0.08822500680068
 6 -8.41638016151615 -4.66634401220122 -0.64080689658966
 6 -5.20005621012101 -4.48532433053305 -0.07078905320532
 8 -4.92611436013601 -5.69572011031103 -0.08472796619662
 6 -3.95590931633163 -3.43138369756976  0.41411605880588
 6 -3.69060257115712 -3.77497367286729  1.87185689868987
 8 -4.31701694179418 -3.83674040884088  2.90451912171217
 8 -2.41195287018702 -3.81674798009801  1.83375331453145
 6 -1.70230875297530 -3.80840593069307  3.09312373757376
 6  2.95149704250425 -2.23346852375238 -1.45616686078608
 6  4.01624539193919 -1.34323132423242 -0.89943547584758
 6  5.10632138753875 -1.15323219461946 -1.73469967156716
 6  5.51145512931293 -1.77218035273527 -3.12338932113211
 6  6.10406423102310 -0.10559821272127 -1.28616517501750
 6  7.44102279627963 -0.70997677977798 -0.90320705800580
 6  8.51837439773977  0.23074870947095 -0.41176965746575
 6  9.67615070447045 -0.39285620592059  0.11328302260226
 6  9.54736225252525 -0.87259607430743  1.47592196099610
 6  10.87155948594859  0.82440729492949 -0.01999716131613
 6  12.22589786028603  0.12050335753575  0.21247955915592
 6  13.42223376597660  0.96314358905891  0.07818071647165
 6  14.83170950615062  0.42312559065907  0.24195885798580
 6  15.02820780888089 -0.12847512801280  1.89588951295130
 6  15.91172080048005  1.33427832983298  0.02532573787379
 6  17.33488296639664  0.82517774217422 -0.20061693559356
 6  18.33298284568457  1.97282447364736 -0.27533768056806
 6  19.80557275837584  1.35351384618462 -0.31844192789279
 6  20.27173697499750  0.37711314161416 -1.49463525472547
 6  20.65443261216122  2.57341875987599 -0.23601869776978
 1 -3.40135077337734  3.28839009000900  1.20551995369537
 1 -9.64661864436444  3.98649773487349 -0.04607824172417
 1 -10.00363285488549 -2.22003240254025 -0.84999782568257
 1 -2.45126764356436 -1.08149576737674  2.15679572787279
 1 -1.58132747134713  1.61952242844284  0.43904035743574
 1 -0.81174255795580  1.15443375777578  3.05639635073507
 1 -1.97670584448445  2.18936751315132  2.80097621542154
 1 -2.41007333983398  0.37043492879288  3.45035090419042
 1 -2.02558157845785 -1.93386465946595 -0.69450723752375
 1 -1.61414658365837 -0.29192066496650 -0.93003279407941
 1  0.18339633793379 -0.96980841414141  1.38184404960496
 1 -0.22387610741074 -2.60236657045705  1.16251648374838
 1 -3.91361589198920  5.67688551645164  0.27062201990199
 1 -5.39365964656466  6.62915559145915  0.98318522462246
 1 -4.17776880508051  5.60015897689769  1.88505627792779
 1 -8.64863787788779  6.04307941714171 -0.30850722652265
 1 -11.95250480408041 -1.63831469896990 -0.81956638383838
 1 -13.01275749074907 -0.19633323352335 -1.11674931133113
 1 -13.01116893999400 -1.06571868726873 -2.99956707380738
 1 -11.78434539833983  0.00528795029503 -3.69465163466347
 1 -11.20966779117912 -1.85931924892489 -3.10592720012001
 1 -9.03099228252825 -4.51003755935593 -1.61607383538354
 1 -7.67837305190519 -5.50781079367937 -0.67381703360336
 1 -9.29781706170617 -4.76711867306731  0.10633524302430
 1 -2.94853443484348 -3.86099982488249 -0.18209651645165
 1  3.05562717811781 -3.42766003980398 -1.53165888298830
 1  2.54736902570257 -1.97929384438444 -2.59409964526453
 1  3.65238256595660 -0.79449219761976  0.01713531513151
 1  4.25745880288029 -1.49459293179318 -3.76971708670867
 1  6.42437601600160 -1.00071874727473 -3.37624884878488
 1  5.97793162056205 -2.90612322662266 -3.33299748354836
 1  6.54865528742874  0.37405274267427 -2.18952156935694
 1  5.84387949734973  0.59738528632863 -0.27551181458146
 1  7.09030020892089 -1.48502669976998 -0.09086736513651
 1  7.52838823722372 -1.44449323962396 -1.62187166306631
 1  8.81688381978198  0.69156975177518 -1.33555634093409
 1  8.36614511261126  1.17700288848885  0.46608231663166
 1  9.83292573967397 -0.89819726342634 -0.85872302990299
 1  8.53143538783879 -1.67671648734874  1.56953531433143
 1  10.32119818921892 -1.23366724792479  1.69389128052805
 1  9.35840905250525 -0.21972319471947  2.22855416051605
 1  10.94995863366337  1.44629738963896 -0.92648982058206
 1  10.98355810241024  1.61466034163416  0.92623650395040
 1  12.73181072327233 -0.29515195469547  1.06120980428043
 1  12.25529768376838 -0.39266748734873 -0.69924292179218
 1  13.68267313731373  1.50582012701270 -0.89566847144715
 1  13.29939198399840  1.68881313261326  0.73033882328233
 1  15.34463588938894 -0.67577509350935 -0.33213140434043
 1  14.62459235913591  0.89791018651865  2.69389216221622
 1  14.17305457895790 -0.66557422932293  2.07892539063907
 1  15.86404343744374 -0.57824140724072  2.14489096679668
 1  15.44320545544555  1.91095108850885 -1.08979895459546
 1  16.20288432103210  2.11312084758476  0.63236155935594
 1  17.73993530863086  0.45456862746275  0.58718890559056
 1  17.14741226542654  0.26083425262526 -0.99827120452045
 1  18.11433644074408  2.51268781658166 -1.03521650995100
 1  18.50859085518552  2.63250715761576  0.39710638113811
 1  19.94410697189719  0.63625647184718  0.56367971877188
 1  19.88295661366137  0.80678572817282 -2.27880000520052
 1  21.23116740674067  0.23665186338634 -1.19683381678168
 1  19.58210093709371 -0.57232495089509 -1.65909398409841
 1  20.22836961556155  3.32210178927893  0.75335608920892
 1  21.85574331463146  2.28304488718872 -0.18860157515752
 1  20.59390604350435  2.87574506170617 -1.25906070237024
 1 -0.70228585368537 -3.97064981438144  2.76929527752775
 1 -2.22840252125213 -4.60334760846085  3.69844048064807
 1 -1.71127514081408 -2.98972744984498  3.73185733893389
 8 -11.93659203350335  3.73607840704070 -0.48694050775078
 1 -12.81731224272427  2.30259149924992 -1.29586019101910

