%nproc=4
%Mem=4GB
# td=(NStates=1) iop(3/107=0140000000,3/108=0140000000) iop(3/107=0140000000,3/108=0140000000) CAM-B3LYP/6-31G(d,p) 

TD

0 1
12 -5.66671817841784  1.22945782008201  0.19004760996100
 6 -4.93738412561256 -2.09569803310331 -0.38074494129413
 6 -3.51456024512451  1.21147143194319  2.85206057935794
 6 -6.19125792149215  4.60624388858886  0.69544975377538
 6 -7.96991275837584  1.16360721142114 -2.40546822032203
 7 -4.40293454675468 -0.21636982878288  1.01683302210221
 6 -4.16819034653465 -1.60073377497750  0.60839318891889
 6 -3.22537566206621 -2.26093939673967  1.46058042174217
 6 -3.03845701670167 -1.36025891679168  2.62264882098210
 6 -3.61096852425243 -0.08068069576958  2.18243282848285
 6 -3.59466250565056 -1.85491893329333  3.97903060246025
 6 -1.91185637883788 -2.59491690099010  0.62236754225423
 6 -0.92066370987099 -3.44205178577858  1.54623821182118
 6  0.30266536703670 -3.81607544824482  0.73104129882988
 8  0.48931899619962 -3.43958127172717 -0.47833406760676
 8  1.01852869856986 -4.69152877017702  1.42346695399540
 7 -5.08051886818682  2.60077945484548  1.55100533223322
 6 -4.10388247804780  2.42414983668367  2.45903650695069
 6 -3.91889139283928  3.68877737993799  3.13962451865187
 6 -4.62411296399640  4.63157468576858  2.58440771207121
 6 -5.37356346054605  4.00010810601060  1.52593868616862
 6 -2.82475783888389  3.81208858465847  4.21416560596060
 6 -4.74182071267127  5.99348676917692  3.05682518731873
 8 -4.13418346634664  6.52890077807781  3.96690058995900
 7 -6.90652445234523  2.64942483828383 -0.63250490679068
 6 -6.96569928472847  3.99104872207221 -0.35897758645865
 6 -7.95686087248725  4.57915464026403 -1.20306441594159
 6 -8.48217767106711  3.57970490039004 -2.07537648204820
 6 -7.83296218671867  2.38342435123512 -1.68146409290929
 6 -8.34451744264426  5.99061897129713 -1.17729723852385
 6 -9.55043940724073  3.80769116731673 -3.16886151895189
 6 -8.82455390909091  4.08766691289129 -4.47670407440744
 7 -6.40856927592759 -0.13119813751375 -1.15854094609461
 6 -7.42899242884288 -0.02757882648265 -2.13990820152015
 6 -7.49647715491549 -1.40473217681768 -2.80470299289929
 6 -6.57767731653165 -2.14478405020502 -2.09656582228223
 6 -5.92499091449145 -1.33797736283628 -1.20259639003900
 6 -8.44553001080108 -1.64496462246225 -3.87069396559656
 6 -6.19888355545555 -3.53079866376638 -2.01755531063106
 8 -6.42420681618162 -4.50481818021802 -2.72167843294329
 6 -5.05270383248325 -3.55277332993299 -1.02100442024202
 6 -5.32005948334833 -4.65332077317732  0.09759343114311
 8 -5.64795056665667 -4.37485649374938  1.23828019141914
 8 -4.93954365256526 -5.84834603100310 -0.30028317291729
 6 -5.17324488868887 -6.99574142744274  0.50812264206421
 6  2.28129910311031 -5.11772289248925  0.71557551195120
 6  3.43576811181118 -4.04784494539454  1.02104000380038
 6  3.98798818901890 -3.25810868096810  0.20360399539954
 6  3.73379771867187 -3.05428036933693 -1.26557606210621
 6  5.14390081588159 -2.42708775637564  0.68204200300030
 6  6.46139101040104 -2.64499742494249 -0.04353288588859
 6  7.77777310091009 -1.97532688818882  0.57313300380038
 6  9.07376819811981 -2.07806263986399 -0.11239902240224
 6  9.61379776147615 -3.54228486888689  0.11583812611261
 6  10.00863144224422 -0.93607384478448  0.38067058255826
 6  11.39631693409341 -0.91418102500250 -0.33466223242324
 6  12.21601929052905  0.27544217171717  0.21008785638564
 6  13.59692214801480  0.48943381328133 -0.54787955115512
 6  14.40187848684869 -0.78356775937594 -0.38557270817082
 6  14.37875381498150  1.79002517411741 -0.19738899369937
 6  15.48856304670467  2.17789581778178 -1.10563555855586
 6  16.12971555595560  3.51484623742374 -0.64620523372337
 6  17.47031228032803  3.85650349194920 -1.31646558175818
 6  17.29478206790679  3.90638553025303 -2.89067129132913
 6  18.06630603670367  5.18035330063006 -0.83761322022202
 1 -3.02019774257426  1.25938021342134  3.65809627802780
 1 -6.37822580138014  5.65310069046905  0.77465645734573
 1 -8.79251965916592  1.02890319321932 -3.22538801760176
 1 -3.50349141394139 -3.13164848024802  1.71174923572357
 1 -1.95458258215822 -1.28573623522352  2.79809108520852
 1 -3.03763354245425 -2.71695485668567  4.54958850285028
 1 -3.38507930063006 -1.02406231063106  4.73357538733873
 1 -4.67162967466747 -1.85088416931693  3.70557450795080
 1 -2.09440475417542 -3.36222573987399 -0.20330095389539
 1 -1.41087892029203 -1.69823894019402  0.40033815541554
 1 -0.61513694719472 -2.99149044464446  2.27618183688369
 1 -1.47686240784078 -4.29322645384539  1.80739253725373
 1 -1.78420853465347  3.68630815521552  3.67164307400740
 1 -2.78741973207321  4.89630683668367  4.52453871157116
 1 -2.96510950595060  3.21828282578258  5.07891289728973
 1 -5.32078514241424  6.67722191659166  2.49751507290729
 1 -10.19164829832983  3.04099475657566 -3.29594284598460
 1 -10.14103490139014  4.56363020712071 -2.69892018271827
 1 -9.52528232803280  3.95642405640564 -5.20919612191219
 1 -8.39109861926193  4.94025377077708 -4.26736669166917
 1 -7.97837768676868  3.29541890069007 -4.68519844464446
 1 -8.08608619821982 -1.21859240214021 -4.79547054535453
 1 -8.22723370637064 -2.94424782988299 -4.02638527552755
 1 -9.49030911041104 -1.68189501290129 -3.61735864256426
 1 -4.10688804620462 -3.95323014961496 -1.41275456235624
 1  2.66071720472047 -6.06748469146915  1.10785674257426
 1  1.96002674607461 -4.96195317141714 -0.27156060566057
 1  3.55863798609861 -3.86094537633763  2.12345735333533
 1  2.69804479117912 -3.26454207530753 -1.67463000400040
 1  3.85564017731773 -2.06163972327233 -1.59382185268527
 1  4.30236241024102 -3.77553128232823 -1.99879880578058
 1  4.73153319421942 -1.32663908790879  0.36493837733773
 1  5.22902142944294 -2.55289692209221  1.71018589888989
 1  6.73169069576958 -3.50637382948295 -0.07288940494049
 1  6.49949010941094 -2.24050165916592 -1.03329392489249
 1  7.60170910221022 -0.93278660376038  0.68690593609361
 1  7.53899600250025 -2.37346392949295  1.59515390069007
 1  8.67002111141114 -1.79629790499050 -1.06632997109711
 1  8.86878139683968 -4.39956872827283 -0.19109290169017
 1  10.49724906570657 -3.82629683178318 -0.39175928942894
 1  9.87082614401440 -3.56577766926693  1.25982642534253
 1  9.42588173877388 -0.08095236903690  0.11981734553455
 1  10.14344444194419 -0.82641917581758  1.37427696769677
 1  11.94050919221922 -1.90124015591559 -0.32990736393639
 1  11.26516260296030 -0.83440634553455 -1.34620595419542
 1  11.59315034853485  1.18169259845985  0.03318376317632
 1  12.38422324562456  0.25895708710871  1.30245852605260
 1  13.27845464616462  0.44233866616662 -1.64514675337534
 1  14.65804514281428 -0.87459567226723  0.65059073907391
 1  14.11537710871087 -1.80189920622062 -0.77758407990799
 1  15.38584957335734 -0.60613381158116 -0.93417030953095
 1  13.41868006220622  2.62036665576558 -0.28721050875087
 1  14.77602430273027  1.78738902810281  0.87106432033203
 1  16.40300195599560  1.44032264496450 -0.89139563026303
 1  15.20573615701570  2.05426933973397 -2.20261164086409
 1  15.50021142574257  4.37001237923792 -0.72837483558356
 1  16.37803057315732  3.48703534493449  0.27454735513551
 1  18.29140282168217  3.07607909910991 -1.00068914851485
 1  16.51224194459446  4.50850737963796 -3.11212357215721
 1  18.38075399889989  4.08651816511651 -3.32583718881888
 1  16.87598779897990  2.96212728272827 -3.04557259185919
 1  18.37255330253025  4.75170638813881  0.14245590979098
 1  19.02997051935193  5.44705885808581 -1.22655957035704
 1  17.36274782568257  5.93422292539254 -0.90119418071807
 1 -5.36674197559756 -8.03243267636764 -0.31099463716372
 1 -6.40416484678468 -6.81531861846185  1.00442394989499
 1 -4.44644281288129 -7.03458503410341  1.34511896849685
 8 -7.98864645624562  6.83287978877888 -0.39425720972097
 1 -9.35606390349035  6.39167481238124 -1.87828351115111

