%nproc=4
%Mem=2GB
# td=(NStates=1) iop(3/107=0140000000,3/108=0140000000) iop(3/107=0140000000,3/108=0140000000) CAM-B3LYP/6-31G(d,p) 

TD

0 1
12 -6.66105867796780  0.59947909200920  0.03276089558956
 6 -4.53807091359136 -2.20605902770277  0.57495777277728
 6 -4.19257107250725  2.70883251635164  1.06346922852285
 6 -8.69466217091709  3.17628165226523 -0.09316881858186
 6 -9.24002209980998 -1.69340236983698 -0.77831789048905
 7 -4.67099217111711  0.34018341604160  0.68008704080408
 6 -4.10275754135414 -0.99471917871787  0.76704726012601
 6 -2.54929834843484 -0.56684844404440  1.03127518981898
 6 -2.42344231003100  0.99622977177718  1.37157932043204
 6 -3.79820608350835  1.41647173237324  0.93285806050605
 6 -2.14166045174517  1.09981177707771  2.87455201800180
 6 -1.59515826422642 -1.12480504390439 -0.20747942164216
 6 -0.15595371367137 -1.17167887448745  0.19532860636064
 6  0.93541462066207 -1.43201043794379 -0.91906007980798
 8  0.82765283338334 -1.07073968646865 -2.01894288448845
 8  1.90651093769377 -2.14195449404940 -0.27948287078708
 7 -6.50078182038204  2.52765313531353  0.21828557645765
 6 -5.36037659855986  3.32921156435644  0.64451074727473
 6 -5.78143235843584  4.76800648544854  0.85339020762076
 6 -7.00382109550955  4.93647973847385  0.40514709800980
 6 -7.47053875777578  3.66521532993299  0.08180301170117
 6 -4.69267418771877  5.76497392789279  1.19417708570857
 6 -7.91444300560056  6.14551147124712  0.45899542324232
 8 -7.56927084328433  7.19088070467047  0.84003185998600
 7 -8.66831038453845  0.67478833803380 -0.54708735783578
 6 -9.28812248464846  1.95612034733473 -0.56866791909191
 6 -10.81490812111211  1.64042391349135 -0.99764554575458
 6 -10.83507786528653  0.30570147454745 -1.03034388988899
 6 -9.64946660996100 -0.37786594979498 -0.76466854355436
 6 -11.72529930523052  2.74932112521252 -1.00135478627863
 6 -12.09814293479348 -0.51214477677768 -1.63447158085809
 6 -12.06947380948095 -0.79256142134213 -3.11040383508351
 7 -6.85823230613061 -1.28816137743774 -0.04065671017102
 6 -8.00126278787879 -2.11080107680768 -0.48951214921492
 6 -7.59194677977798 -3.64190151255126 -0.52530354045405
 6 -6.29749537073707 -3.65699486038604 -0.18715697629763
 6 -5.84864115281528 -2.26455527002700  0.15463164746475
 6 -8.58890741424142 -4.66111348914892 -0.83890670657066
 6 -5.05783198769877 -4.44641043914392  0.07145517121712
 8 -4.88406015471547 -5.57120765906591 -0.08795828922892
 6 -4.08871259665967 -3.44797535673567  0.64370901810181
 6 -3.54789830073007 -3.85595177067707  2.04287400040004
 8 -4.14995023512351 -4.21697843264327  2.96351502130213
 8 -2.30836251115112 -3.70656696199620  2.05693563276328
 6 -1.65005352745275 -3.82443753385339  3.37263168836884
 6  3.12105399819982 -2.57239241614161 -1.18179942404240
 6  4.09508327572757 -1.36420342144214 -0.93628916121612
 6  5.13790454585459 -1.27338420982098 -1.80633683528353
 6  5.40448443224322 -1.99924305900590 -3.08547552975298
 6  6.13214703930393 -0.18145579847985 -1.48183474197420
 6  7.31695038903890 -0.68413419551955 -0.87168390569057
 6  8.25373793409341  0.29144477907791 -0.40102858335834
 6  9.81482457185719 -0.32118903920392  0.10945263956396
 6  9.45755327162716 -0.86050486518652  1.64700906970697
 6  10.79568189818982  0.77633248744874  0.18999383778378
 6  12.24118938943894  0.08307961516152  0.13079139033903
 6  13.29548109070907  1.24948222292229  0.37131002940294
 6  14.65167150235024  0.51617489558956  0.34794945704570
 6  14.86861184928493 -0.16599888038804  1.42263218721872
 6  15.84524415281528  1.42344724672467 -0.19144593929393
 6  17.35627510561056  0.98414363876388 -0.05046192009201
 6  18.24140368776878  1.99076626782678 -0.44518466526653
 6  19.60329253035303  1.33852234703470 -0.41417150085009
 6  19.85434523582358  0.27018244854485 -1.64830062126213
 6  20.78776594549455  2.32829424742474 -0.46669176507651
 1 -3.37064770307031  3.38395964696470  1.02971237293729
 1 -9.41860584308431  3.94663374847485 -0.13301693559356
 1 -10.13259575117512 -2.48667906720672 -1.02423524942494
 1 -1.92722523932393 -1.24037165496550  1.98023807210721
 1 -1.67244658325833  1.44231470767077  0.64514096749675
 1 -1.05604698839884  0.54089240364036  3.10566127722772
 1 -1.85339351325133  2.02387096349635  3.05367148494849
 1 -2.69403173567357  0.49826771207121  3.43113898299830
 1 -2.31423044334433 -2.10094136713671 -0.65401318811881
 1 -1.86011118011801 -0.17969944284428 -1.30299008980898
 1  0.01565956425643 -0.18761019431943  0.47425329052905
 1  0.02115839603960 -2.10385671947195  1.06859709180918
 1 -3.81566609700970  5.69877770567057  0.32877783548355
 1 -5.02489276987699  6.60922359825983  1.00479738583858
 1 -4.15602663086309  5.60442940394039  2.04783255555556
 1 -8.98128114221422  6.24022913211321  0.26328995319532
 1 -12.28870842444244 -1.51047191469147 -0.77430185738574
 1 -13.06174238923892 -0.00621422162216 -1.46098373477348
 1 -12.92136996009601 -1.57248936433643 -3.57040415751575
 1 -12.07507447124713  0.29351677317732 -3.72399456895690
 1 -11.11304812921292 -1.40144346134613 -3.16683329072907
 1 -8.95264444774477 -4.38332488808881 -2.02508473647365
 1 -8.18977419201920 -5.70469048164817 -0.44420407230723
 1 -9.80583786378638 -4.83928588978898 -0.18779416991699
 1 -3.30360994239424 -3.65351907680768 -0.16678498529853
 1  3.37486910231023 -3.65071234503450 -0.36624234133413
 1  2.61219550835084 -3.11643755875588 -2.07566780208021
 1  3.50087741544154 -0.72974572297230  0.02058566016602
 1  4.12444550155015 -2.49331280378038 -3.52364247924793
 1  5.91058463686369 -1.13821249664967 -3.82504372827283
 1  6.13144697209721 -3.08900151445145 -2.84781896569657
 1  6.49778019991999  0.73565890329033 -2.49945256245625
 1  5.42887799719972  0.40957650545055 -0.59272353575358
 1  7.20501168006801 -1.39259745684568  0.31025274687469
 1  7.95728112651265 -1.40174896519652 -1.55468494439444
 1  8.43767589898990  1.21027162196220 -1.22256504180418
 1  8.10702920102010  0.99526471467147  0.08367407580758
 1  9.85602804990499 -1.35425286898690 -0.85870302790279
 1  8.71396364066407 -1.64307312301230  1.66073443424342
 1  10.26945301470147 -1.32139602080208  2.06391828322832
 1  9.12544575617562 -0.01696291869187  2.16335764086409
 1  10.60327396519652  1.36265902580258 -0.63751092269227
 1  10.88650839743974  1.29077795339534  1.22609648994900
 1  12.29022656485648 -0.95875831533153  0.88219190249025
 1  12.40077223122312 -0.35312353295330 -0.86109910741074
 1  13.28968383838384  1.85769531453145 -0.39094799939994
 1  12.89811185598560  1.76905115641564  1.18207399679968
 1  14.58096952275228 -0.18969648564857 -0.49718790999100
 1  14.96984688458846  0.34141453695370  2.04874764776478
 1  14.11434870837084 -0.77369504140414  1.86622412051205
 1  15.81485851895189 -0.44849843294329  1.43822029972997
 1  15.78189932483248  1.85763575697570 -1.10967094179418
 1  15.72712674527453  2.37309684518452  0.88969729292929
 1  17.64736605170517  0.58365153575358  0.94535472217222
 1  17.19679720392039 -0.15942777357736 -0.47978935633563
 1  18.06670167726773  2.63343989178918 -1.14982797109711
 1  18.26353634973497  2.72510641754175  0.70314698519852
 1  19.79291185238524  0.74499734593459  0.76742009280928
 1  19.62584090209021  0.78825387498750 -2.47150927612761
 1  20.86911120112011  0.17478567676768 -1.65829996339634
 1  19.43632635963596 -0.64832255065507 -1.77679575427543
 1  20.56939371797180  3.06484606370637  0.41662241584158
 1  22.03844158445845  1.69514609730973 -0.03971668666867
 1  21.08967562046205  2.97926541374137 -1.59496429272927
 1 -0.58648427352735 -4.15997874727473  3.06568491649165
 1 -1.92249193019302 -4.91500877457746  3.83460409700970
 1 -1.63933794709471 -2.98458693579358  3.86476062926293
 8 -11.55208358265827  3.95513031223122 -0.97930974467447
 1 -12.71486199769977  2.29663090319032 -1.21982258725873

