%nproc=4
%Mem=4GB
# td=(NStates=1) iop(3/107=0140000000,3/108=0140000000) iop(3/107=0140000000,3/108=0140000000) CAM-B3LYP/6-31G(d,p) 

TD

0 1
12 -5.56104761136114  1.19101397569757  0.19978858405841
 6 -4.96246663386339 -2.22331079437944 -0.26918378517852
 6 -3.25111390049005  1.15658594339434  2.69565493879388
 6 -6.02217101280128  4.57959122332233  0.60797100590059
 6 -7.94829059615962  1.09641049174917 -2.26051372487249
 7 -4.24091834513451 -0.30668886068607  1.07332867166717
 6 -4.22845637313731 -1.61907560916092  0.73597594719472
 6 -3.18072119661966 -2.37862116491649  1.62930729442944
 6 -2.83887705870587 -1.36370926182618  2.64242079817982
 6 -3.43571099849985 -0.11806443414341  2.07563214841484
 6 -3.51288432783278 -1.59027246864687  4.01015371477148
 6 -1.99712490569057 -2.77445485478548  0.71352665816582
 6 -1.02700434393439 -3.66461404200420  1.46260984898490
 6  0.17102220272027 -3.98225206590659  0.52046024072407
 8  0.36638670297030 -3.58005531913191 -0.58249448364836
 8  0.97048389408941 -4.89945956325633  1.08376298359836
 7 -4.79448026432643  2.69202857975798  1.46412664436444
 6 -3.76603869366937  2.41381880358036  2.32128273157316
 6 -3.47896740044004  3.53637213941394  3.04532508870887
 6 -4.34963551625163  4.62010353865387  2.54043331463146
 6 -5.21290739493949  3.96315441064106  1.55397148944894
 6 -2.36769213231323  3.76157353315332  4.05268945834584
 6 -4.41536806740674  6.05383280378038  2.84768427322732
 8 -3.70401044904490  6.69253714171417  3.57884178407841
 7 -6.81058485838584  2.66544644044404 -0.72037369366937
 6 -6.76673938873887  3.91286090329033 -0.31461315001500
 6 -7.77350253665367  4.57782450725072 -1.25000911041104
 6 -8.44197365066507  3.62798972887289 -2.00694963936394
 6 -7.75301419191919  2.38952496129613 -1.72221816831683
 6 -7.97612060296030  6.07175708510851 -1.23472298109811
 6 -9.39626398969897  3.74786518471847 -3.10405503830383
 6 -8.77094854855486  4.05891403760376 -4.47042344634463
 7 -6.36677509650965 -0.14456947464746 -0.96601169316932
 6 -7.32264179377938 -0.02479854845485 -1.96671088178818
 6 -7.53443095029503 -1.27551925552555 -2.60098262086209
 6 -6.59154870367037 -2.17452702450245 -1.99624579027903
 6 -5.91290970637064 -1.43889745484548 -1.01210734113411
 6 -8.40556601440144 -1.58460858685869 -3.70263715991599
 6 -6.17616128322832 -3.51062664656466 -1.94106766186619
 8 -6.53831822732273 -4.50163786218622 -2.60701696679668
 6 -4.92474103620362 -3.61576962956296 -0.81018333813381
 6 -5.36535401280128 -4.68952439353935  0.15590926272627
 8 -5.78992476407641 -4.45806481458146  1.28147451085108
 8 -5.04034373257326 -5.86081727812781 -0.31399454405441
 6 -5.47955551975198 -6.97253910721072  0.51364319411941
 6  2.25661663486349 -5.18085920612061  0.42815677007701
 6  3.27024155915592 -4.16222638353835  0.76784468426843
 6  3.98464785498550 -3.39843271337134 -0.01802816781678
 6  3.68380271917192 -3.16782172347235 -1.55468497299730
 6  4.96774320012001 -2.45770081768177  0.54688848764876
 6  6.39727459875988 -2.79674259945995  0.01890335773577
 6  7.36348167176718 -1.80128948444845  0.49528521902190
 6  8.81653247454745 -1.93897873147315 -0.05451323382338
 6  9.34697107880788 -3.43103374377438  0.35809235153515
 6  9.77772835193519 -0.82934317171717  0.35865838133813
 6  11.20356765916592 -0.86405601250125 -0.27508627482748
 6  11.91726941554155  0.43964859235924  0.10119696729673
 6  13.30925338113811  0.52970784068407 -0.52424718791879
 6  14.29717801680168 -0.58693809640964 -0.23608775967597
 6  14.02258819841984  1.91713788538854 -0.12222147694769
 6  15.26831102150215  2.34248227642764 -0.86892188718872
 6  15.84201678607861  3.60498525132513 -0.49782039523952
 6  17.11426667576758  3.97246508810881 -1.27412134733473
 6  17.03964655435544  4.14742963466347 -2.70150237443744
 6  17.69641904800480  5.30828609390939 -0.65195465436544
 1 -2.54495021782178  1.23929820522052  3.60065053345335
 1 -6.15033301210121  5.53461884228423  0.73472246394639
 1 -8.73204361156115  0.97555785868587 -2.98555403420342
 1 -3.82759382418242 -3.14621993739374  2.06739480028003
 1 -1.82597972187219 -1.29486714831483  2.85421669776978
 1 -3.15448522762276 -2.69731289248925  4.38163170717072
 1 -3.41343213591359 -0.87470737513751  4.70320235003500
 1 -4.71766427812781 -1.62370145104510  3.79402335283528
 1 -2.49724503820382 -3.41496101340134 -0.04016464026403
 1 -1.65524335673567 -1.73436255255526  0.20343846544654
 1 -0.71922735623562 -3.09506080168017  2.23381760046005
 1 -1.46228094969497 -4.58053518471847  1.92341413941394
 1 -1.44191430523052  3.51159068346835  3.58635454515451
 1 -2.26242723282328  4.74374158015802  4.37385364306431
 1 -2.53068606360636  3.22934393189319  5.05815082108211
 1 -5.12770583448345  6.35889008340834  2.25089041044104
 1 -10.04842397589759  2.92232288938894 -3.13789704140414
 1 -9.98918971687169  4.59891373547355 -2.80851114181418
 1 -9.55383518331833  4.34609302330233 -5.11231643394339
 1 -8.18914842424243  4.83816356175618 -4.31091104610461
 1 -8.26822667166716  3.16726608540854 -4.79971989678968
 1 -8.37307489708971 -0.82835337823782 -4.53055405370537
 1 -8.01925290829083 -2.55285869096910 -4.20517315431543
 1 -9.60996107560756 -1.76998382178218 -3.47439434613461
 1 -3.94536189358936 -3.73771859845985 -1.47817110401040
 1  2.54891602460246 -6.10289823282328  0.81012696959696
 1  2.04869561296130 -5.16505348144814 -0.61339478907891
 1  3.58394051635164 -4.13649293109311  1.74837984558456
 1  2.48862384908491 -3.50994661576158 -1.80171271227123
 1  3.71585619891989 -2.13160671997200 -1.79197166766677
 1  4.36962913691369 -3.84150787998800 -2.24745367126713
 1  4.58706874777478 -1.31503792779278  0.29980186368637
 1  5.02644117141714 -2.66370800320032  1.56742162246225
 1  6.63122064876488 -3.86353954605461  0.32487037103710
 1  6.50919107950795 -2.73780138913891 -1.08755935143514
 1  7.01766069736974 -0.67371069616962  0.12315956145615
 1  7.31324342724272 -1.79427601070107  1.66578096339634
 1  8.84445855515552 -1.99310758595860 -1.10924426252625
 1  8.65843036173617 -4.05915468686869  0.12127833543354
 1  10.28381772257226 -3.50714491659166 -0.12900301380138
 1  9.59932899429943 -3.36194728622862  1.56182662536254
 1  9.30408955955596  0.17037276347635  0.31399676347635
 1  10.10184028152815 -0.83086962086209  1.45350489048905
 1  11.79991513281328 -1.85285531743174  0.29715534233423
 1  11.11414750145015 -1.00741364626463 -1.51093242684268
 1  11.38152918641864  1.43408783798380 -0.15491504670467
 1  12.08315313861386  0.31464265566557  1.08002628282828
 1  13.10516731743174  0.85644007630763 -1.60603284198420
 1  14.30905024332433 -0.88546675937594  0.90024570457046
 1  14.02552812381238 -1.53885290159016 -0.72908923042304
 1  15.24588557695770 -0.60039323752375 -0.85459235173517
 1  13.29409760396040  2.71313593269327 -0.24931671937194
 1  14.08188488878888  1.77372766196620  0.99298651255126
 1  16.02159381518152  1.57011562426243 -0.84200069076908
 1  14.85103068646865  2.33987790059006 -1.83809518921892
 1  15.10848225282528  4.59991536953695 -0.45595759385939
 1  16.10834360446045  3.49302594399440  0.51335123552355
 1  17.75119880128013  3.01701319251925 -1.23060213981398
 1  16.32508322872287  5.11046757565757 -3.01399375917592
 1  18.07318324182418  4.37606712001200 -3.21956656175618
 1  16.63339353955396  3.29797086708671 -3.10914894949495
 1  17.91624767196720  5.22399361686169  0.42493415761576
 1  18.68058558085809  5.67908206040604 -0.93533044744474
 1  16.86842839373937  6.18591809490949 -0.82117617891789
 1 -5.35400070147015 -7.81047048014802 -0.31263480118012
 1 -6.57666209650965 -7.07612469906991  0.94504801230123
 1 -4.74094226282628 -7.20116169176918  1.28256271287129
 8 -7.43727131873187  6.91579808060806 -0.50063784778478
 1 -8.73842213931393  6.55872151705170 -1.94038972177218

