%nproc=4
%Mem=2GB
# td=(NStates=1) iop(3/107=0140000000,3/108=0140000000) iop(3/107=0140000000,3/108=0140000000) CAM-B3LYP/6-31G(d,p) 

TD

0 1
12 -6.67041961406141  0.66821596569657  0.31152877237724
 6 -4.37256436293629 -2.06676509830983  0.44736501350135
 6 -4.37484930033003  2.83156478957896  1.08833171477148
 6 -8.96849955465547  3.25349937403740 -0.15801530323032
 6 -9.12375047264727 -1.74270730033003 -0.69256931563156
 7 -4.73051812371237  0.41625102280228  0.69216824892489
 6 -3.96219348494850 -0.79325903270327  0.74855541094109
 6 -2.57420083868387 -0.48355011421142  1.00405246754675
 6 -2.46091605740574  1.03831398019802  1.33127529002900
 6 -3.91925818871887  1.54448453365337  0.96099087378738
 6 -2.19150543624362  1.27154895079508  2.78087265006501
 6 -1.55729447784779 -0.88206076947695 -0.06897557125713
 6 -0.09553767206721 -0.96040774737474  0.38479755325533
 6  0.82199327852785 -1.43004024092409 -0.89656783058306
 8  0.69848991709171 -1.10863347584758 -2.04366535673567
 8  1.95194548114811 -2.25106540514051 -0.37292221472147
 7 -6.60799254145414  2.66358672867287  0.30176392429243
 6 -5.56423698459846  3.22685132833283  0.73206950315032
 6 -5.90269448464847  4.61952163696370  0.68598346694670
 6 -7.13866457985799  4.97827391789179  0.48719530283028
 6 -7.60662236613661  3.70311912031203  0.17209204060406
 6 -4.93497841814181  5.62242967346735  0.99084675267527
 6 -7.83902546384638  6.16235315541554  0.20497002070207
 8 -7.52757667386739  7.36066768336834  0.36400425722572
 7 -8.74879843334333  0.70739159835984 -0.27726037513751
 6 -9.61723539593959  1.76411114641464 -0.36677773007301
 6 -10.92911954225423  1.55062493359336 -0.78944472567257
 6 -10.93409776727673  0.05646655105511 -1.11579243474348
 6 -9.62979464276428 -0.41001916511651 -0.73855593229323
 6 -12.05304207950795  2.45843203630363 -0.84998964976498
 6 -12.09046216671667 -0.71233479577958 -1.49524765846585
 6 -12.44803166526653 -0.70015218041804 -2.88201099579958
 7 -6.90289677257726 -1.44835739703970 -0.05524816931693
 6 -7.98410107170717 -2.20379037573757 -0.34760795879588
 6 -7.52667025212521 -3.66303362576258 -0.56175718581858
 6 -6.15293091429143 -3.48635779667967 -0.22398065866587
 6 -5.84852114081408 -2.14723353785379  0.07966415071507
 6 -8.37799632313231 -4.87109448724873 -0.68934175007501
 6 -4.92351855635563 -4.38038383648365 -0.00819279357936
 8 -4.84866661536154 -5.53393393169317 -0.03222271567157
 6 -3.75287901330133 -3.38338889808981  0.54548919611961
 6 -3.38341185208521 -3.57213338883888  1.89544925792579
 8 -3.79570481058106 -3.76825356015602  3.01213988378838
 8 -1.97319899479948 -3.58168447374737  1.93008294749475
 6 -1.36398492059206 -3.84459955005501  3.19383380858086
 6  2.98139003180318 -2.53936911381138 -1.31945318941894
 6  4.14149791719172 -1.46542354345435 -1.25130066236624
 6  5.12623337873787 -1.25019189058906 -1.93744994659466
 6  5.35527951175118 -2.28542167686769 -3.13815079727973
 6  6.02420624522452 -0.10181783468347 -1.80448700720072
 6  7.34052274627463 -0.70612639473947 -1.09956669396940
 6  8.31837439773977  0.23794942954295 -0.74679315981598
 6  9.66228931833183 -0.35511243154315 -0.08106641234123
 6  9.57554507080708 -0.93866268096810  1.37328169696970
 6  10.76512884288429  0.83497835203520  0.05259009740974
 6  12.29828509900990  0.17448875607561  0.23666197739774
 6  13.31036257885789  1.13146042074207  0.56512941134113
 6  14.68273460866087  0.48989226732673  0.58487314941494
 6  14.87802279037904 -0.30545282578258  1.89221914591459
 6  15.82516214461446  1.53656855885589  0.29204240954095
 6  17.23089256735674  0.84593981838184 -0.07542441634163
 6  18.47938748614862  1.84638182938294 -0.26570671747175
 6  19.96433863496350  1.10982947774777 -0.33420350405040
 6  20.02538233953396  0.46014144444444 -1.78195398659866
 6  21.10632780168017  1.98899031703170 -0.12848794469447
 1 -3.57447808610861  3.64741599259926  1.41363076477648
 1 -9.97442142464246  3.85757484258426 -0.34262789668967
 1 -9.97295978757876 -2.55007540684068 -0.91814464036404
 1 -2.24599711651165 -1.08404602240224  1.93182323062306
 1 -1.76167550615061  1.82787326352635  0.60857731113111
 1 -1.49559094279428  0.60625894029403  3.16155686678668
 1 -2.14375254915492  2.46908548494849  2.89072519031903
 1 -3.08489082158216  1.03945183048305  3.44824069316932
 1 -1.82831185148515 -1.83624489748975 -0.48668645544555
 1 -1.73522869186919 -0.04293576647665 -1.00694048484848
 1  0.01938993729373  0.25688425512551  0.81408727392739
 1 -0.34531825162516 -1.89217555135514  1.08770900300030
 1 -3.98151268166817  5.75189301720172  0.57439239693969
 1 -5.39497977857786  6.69295197109711  0.71407831393139
 1 -4.27130815901590  5.18031699269927  1.94126189848985
 1 -8.89073208730873  5.80080518971897  0.07270089428943
 1 -12.29272882648265 -1.78959982748275 -0.95391981918192
 1 -12.94162037703770 -0.34100770097010 -0.57861549794980
 1 -13.46169399249925 -1.21792390779078 -3.26468358545855
 1 -12.27730469426943  0.38564598609861 -3.46188835833583
 1 -11.37170399479948 -1.54903822082208 -3.29886649404940
 1 -9.07020620392039 -4.69403595919592 -1.54270649864987
 1 -7.62607782238224 -5.69992000460046 -1.19861951385138
 1 -9.23980126012601 -5.35608756995700  0.02039664916492
 1 -3.08781836323632 -3.71804552945294 -0.07808611541154
 1  3.27573918931893 -3.35382265606561 -1.05335105220522
 1  2.50806509530953 -2.83262917791779 -2.51766200150015
 1  3.90718804650465 -1.00161290969097 -0.37871426982698
 1  4.41997505450545 -2.02889636213621 -3.89578969396940
 1  6.13009658805881 -1.83146182158216 -3.57802902680268
 1  5.40207403480348 -3.29268188248825 -2.88439262306231
 1  6.43189361126113  0.28804414181418 -2.95934855205521
 1  5.88969407880788  0.88306385418542 -1.29986424982498
 1  6.76232741164116 -1.34383258035804 -0.04608288668867
 1  7.58012341074107 -1.65050384068407 -1.60084956085608
 1  8.67315944734473  1.03067366216622 -1.58383116841684
 1  7.98928742684268  1.18344353255326 -0.02304659625963
 1  9.88765121222122 -1.27113455715572 -0.64071122872287
 1  8.94752699699970 -2.07994681038104  0.92738109890989
 1  10.53369943934393 -1.06679056025602  2.03723561496150
 1  9.07342055365537 -0.31780300270027  1.89536084118412
 1  10.82060569836984  1.59357211711171 -0.90183735533553
 1  10.65989573617362  1.40672954855486  0.91001488178818
 1  12.14077161936194 -0.82809524902490  1.03384706800680
 1  12.57826998099810 -0.31416963756376 -0.69303230073007
 1  13.18581345134514  1.76862640764076 -0.28324722932293
 1  13.32497454225422  1.54205845714571  1.40171596099610
 1  14.69282070787079 -0.29121663766377 -0.18226641784179
 1  14.87762766266627  0.38829922542254  2.54974774777478
 1  13.84819209270927 -1.26975464736474  2.37044454255426
 1  16.14113114621462 -0.60768435153515  1.90386686438644
 1  15.51337247214721  2.21918191159116 -0.78179815451545
 1  15.76395042764276  2.04709424492449  1.28763708690869
 1  17.40299161426142 -0.10102693209321  0.98818900560056
 1  17.26718424262426  0.43901207040704 -1.07335871327133
 1  18.52264727182719  2.64928147594759 -1.36025901420142
 1  18.37614761086109  2.75190909780978  0.55274194469447
 1  19.64574713591360  0.00344319051905  0.11261461226123
 1  19.60135845384539  1.24927997759776 -2.58912103730373
 1  20.86881117111711  0.09993819201920 -2.01734586798680
 1  19.45628835583559 -0.52466018441844 -1.71709978467847
 1  20.90201698029803  2.26718629772977  1.13024377797780
 1  22.03033077337734  1.15249183188319 -0.26583929892989
 1  20.96875352825283  2.88121560876088 -0.92791758805881
 1 -0.37825345044504 -4.68873162256226  3.05826417441744
 1 -2.05254493549355 -4.62727000070007  3.91896253285329
 1 -1.13959797309731 -2.92959143624362  3.73116726992699
 8 -11.89363773807381  3.79289408860886 -0.94557637133713
 1 -13.20651116261626  1.87179841994199 -0.93315392039204

