%nproc=4
%Mem=4GB
# td=(NStates=1) iop(3/107=0140000000,3/108=0140000000) iop(3/107=0140000000,3/108=0140000000) CAM-B3LYP/6-31G(d,p) 

TD

0 1
12 -5.59449095569557  1.27024189848985  0.15915452065207
 6 -5.02729311651165 -2.12802126542654 -0.40403727052705
 6 -3.37867665676568  1.08207849264927  2.73749912321232
 6 -6.18815761146115  4.60924418861886  0.67415762456246
 6 -7.91334710181018  1.21756260696070 -2.32464013751375
 7 -4.18514276757676 -0.22337052885289  0.94098543734373
 6 -4.26752027952795 -1.63428713031303  0.56632898249825
 6 -3.26690981548155 -2.41497480028003  1.50457482118212
 6 -2.93735690669067 -1.34668755965597  2.71089764586459
 6 -3.56302372977298 -0.13526615431543  2.15925051025103
 6 -3.52488552795280 -1.76681012241224  4.05173787318732
 6 -2.05083027622762 -2.89389679897990  0.65115042054205
 6 -1.03442508600860 -3.69196677727773  1.53764735273527
 6  0.21934703520352 -4.05231907260726  0.66179437413741
 8  0.28155822012201 -3.52891020462046 -0.39292552675268
 8  1.06011285698570 -4.81552116941694  1.32937754505451
 7 -4.82236305260526  2.67261663856386  1.51420165186519
 6 -3.95034712451245  2.36585400710071  2.50300090339034
 6 -3.66911641534153  3.67708621082108  3.14149470567057
 6 -4.39987053975398  4.64925645394539  2.55711498279828
 6 -5.30902700690069  3.94284237943794  1.58053414571457
 6 -2.65855121822182  3.81468884468447  4.30620480988099
 6 -4.58239477007701  5.97961538203820  2.81478098289829
 8 -3.94775482348235  6.60859874787479  3.68240214011401
 7 -6.85131893179318  2.60723061886189 -0.66996865316532
 6 -6.96510922572257  3.96395601280128 -0.29856154485449
 6 -7.84218940534053  4.65770249504950 -1.20498460796080
 6 -8.37740719401940  3.69549647954796 -2.03562250665066
 6 -7.71227011751175  2.42030803960396 -1.77150309680968
 6 -8.23767675857586  6.08181809120912 -1.11608111691169
 6 -9.38084244754476  3.75676607480748 -3.16390102290229
 6 -8.79739119281928  4.18745689188919 -4.46376278027803
 7 -6.33267168616862 -0.10368538623862 -1.07538263026303
 6 -7.23400292989299  0.03959789118912 -2.17757196789679
 6 -7.45280278747875 -1.24546625022502 -2.76325884848485
 6 -6.55663521232123 -2.09726929872987 -2.11584775047505
 6 -5.88133654905490 -1.38245181028103 -1.14765089548955
 6 -8.29819527732773 -1.60769089508951 -3.87369426562656
 6 -6.13645731283128 -3.44492007590759 -2.08466202130213
 8 -6.51210560606061 -4.47925562396240 -2.65088135323532
 6 -5.00820938303830 -3.60020807340734 -0.99775209500950
 6 -5.23282075947595 -4.65594103520352  0.07017068886889
 8 -5.63182895449545 -4.39678868696870  1.19054541794179
 8 -5.01397109530953 -5.90181137753775 -0.45991913651365
 6 -5.44694225842584 -6.96222807610761  0.42008383818382
 6  2.28569954315432 -5.16657777797780  0.69440339473947
 6  3.38482301730173 -4.14651481238124  1.08705660546055
 6  4.01920131033103 -3.31260413051305  0.26086972197220
 6  3.73771811071107 -3.22629757105711 -1.26732623712371
 6  5.15462188798880 -2.52016706430643  0.78367216601660
 6  6.52958783008301 -2.78909183438344  0.19498096549655
 6  7.60701602520252 -1.79548890439044  0.72071776227623
 6  8.92826364766477 -1.98807364096410  0.03880609810981
 6  9.60566694839484 -3.52086272667267  0.23249979227923
 6  9.87660823992399 -0.89836007340734  0.42420493599360
 6  11.30956825922592 -0.81748135503550 -0.22888165436544
 6  12.13431111971197  0.34111873937394  0.21388823642364
 6  13.38651110691069  0.50018488838884 -0.65117988118812
 6  14.32297059605961 -0.70539994259426 -0.47140129102910
 6  14.16700263986399  1.81033720532053 -0.24119337413741
 6  15.32952714311431  2.18601662986299 -1.05050004500450
 6  15.95759834423442  3.53783853665367 -0.59407002020202
 6  17.08800404950495  4.01166900850085 -1.39586352155216
 6  16.84958754845485  4.17561245294529 -2.93180540474047
 6  17.74368377447745  5.27356262156216 -0.92056151505151
 1 -2.72206792959296  1.22072634803480  3.66372684108411
 1 -6.46060403920392  5.70235561596160  0.93993298499850
 1 -8.45918632583258  1.25039534243424 -3.28305378417842
 1 -3.93667473227323 -3.25468078347835  2.04849291009101
 1 -1.74789191309131 -1.23195085668567  2.85737701380138
 1 -2.92195197429743 -2.58462162336234  4.70643418741874
 1 -3.57537833053305 -0.79436934133413  4.73066509630963
 1 -4.55702821452145 -1.92981206210621  4.03190714121412
 1 -2.49777509120912 -3.55692520982098 -0.18919954375438
 1 -1.52632046444644 -2.02529164546455  0.18608673027303
 1 -0.60842627612761 -3.12925422102210  2.44937915661566
 1 -1.38761348294829 -4.57877500870087  1.96058785678568
 1 -1.63827394119412  3.53193271767177  4.17859376907691
 1 -2.60036102620262  5.00117732373237  4.46178243594359
 1 -3.04492748774878  3.34717571507151  5.17817282328233
 1 -5.38672173607361  6.54573876827683  2.10686600800080
 1 -9.93802293579358  2.92221287838784 -3.32598585028503
 1 -10.23017381528153  4.50855469956996 -2.77984827552755
 1 -9.34467426722672  4.16177459145915 -5.42445764806481
 1 -8.41636114551455  5.05996574197420 -4.49527948294829
 1 -8.00025987498750  3.45936529532953 -4.70715063986399
 1 -8.15852344194420 -1.12444298719872 -4.77098809710971
 1 -8.26341732473247 -2.79109251435144 -4.07986062306230
 1 -9.23593367286729 -1.23511033443344 -3.55853275997600
 1 -3.97376473387339 -3.80687551415142 -1.51778506540654
 1  2.38689982298230 -6.26075401840184  0.88978493539354
 1  2.10634137753775 -4.87543451955196 -0.42505595519552
 1  3.83824594689469 -4.05437471927193  2.00609561716172
 1  2.66044103080308 -3.29948556965697 -1.61193373437344
 1  4.11635624892489 -2.21657521682168 -1.56930940144014
 1  4.17864003800380 -3.90154388358836 -1.96535546144614
 1  5.14110415131513 -1.55492191619162  0.37231911541154
 1  5.36565509280928 -2.77204883728373  1.84886976727673
 1  6.80029755645565 -3.88135132723272  0.52192007600760
 1  6.62443260366037 -2.78843645264526 -0.91820241574157
 1  7.34743367466747 -0.87201052615262  0.67686493199320
 1  7.67828993189319 -1.92605918901890  1.77096148144814
 1  8.85893000230023 -1.98111638683868 -1.02652599069907
 1  8.94561908060806 -4.14592336373637 -0.45098889128913
 1  10.43621296209621 -3.47949215131513 -0.10286039953995
 1  9.28848791019102 -3.92259335083508  1.46683712641264
 1  9.38470762136214  0.21876760296030  0.28833419721972
 1  10.04391448894889 -0.83137967186719  1.38643818381838
 1  11.71167630893089 -1.87851788368837  0.02187781458146
 1  10.97377346404641 -0.67724062896290 -1.35625695929593
 1  11.59398043154316  1.43135756495650  0.34494493929393
 1  12.22128695199520  0.26089728112811  1.34918319851985
 1  13.10218701940194  0.27994242654265 -1.66551879057906
 1  14.56975631393139 -0.78914712741274  0.60985666566657
 1  13.96436200720072 -1.68324734103410 -0.74396071757176
 1  15.17220820922092 -0.62928612681268 -1.04934182668267
 1  13.47163535773577  2.74991961106111 -0.27242903060306
 1  14.45660236053605  1.49312960216022  0.82043925782578
 1  16.22731438723872  1.67684629732973 -0.81831832253225
 1  15.06352193559356  2.05886979977998 -2.01961334103410
 1  15.08722012661266  4.22631800980098 -0.92167416551655
 1  16.31365413551355  3.40152679407941  0.47348724912491
 1  17.86887056845685  3.14057554875488 -1.32188126772677
 1  16.25679640004000  4.84956148504850 -3.22497485728573
 1  17.80310623412342  4.44279379267927 -3.41698630373037
 1  16.54150435063507  3.19927099709971 -3.25572360696070
 1  17.83771981918192  5.27118833633363  0.20979264346435
 1  18.70944846714671  5.45712986518652 -1.49080599499950
 1  17.06135768666867  6.10923042614261 -1.19357341864186
 1 -5.27142244364436 -7.93617305040504 -0.01669520722072
 1 -6.33797822812281 -6.78215530213021  0.58699220672067
 1 -4.64409257785779 -6.90124169976998  1.15489994659466
 8 -7.74795238683868  6.88083458425843 -0.29356714071407
 1 -8.84742303940394  6.49631527642764 -1.96683236603660

