%nproc=4
%Mem=2GB
# td=(NStates=1) iop(3/107=0140000000,3/108=0140000000) iop(3/107=0140000000,3/108=0140000000) CAM-B3LYP/6-31G(d,p) 

TD

0 1
12 -6.71873444554455  0.60758990309031  0.06128374787479
 6 -4.42506961346135 -2.04921334313431  0.39194947194719
 6 -4.42568438383838  2.67411904500450  0.88970185178518
 6 -8.97371007570757  3.30447447154715 -0.16603610531053
 6 -9.10511860946095 -1.65872890249025 -0.67951801050105
 7 -4.77367243914391  0.36937633533353  0.54725375747575
 6 -3.95626289188919 -0.93667337413741  0.57292784818482
 6 -2.46315973457346 -0.52055381458146  0.97058912121212
 6 -2.57333729952995  0.95691584038404  1.30323248574857
 6 -3.95157142004200  1.38745883108311  0.88736351105111
 6 -1.90754704040404  1.36788858475848  2.50842540534053
 6 -1.64317306570657 -0.84042660606061 -0.31411008470847
 6 -0.09679779807981 -1.13652535913591  0.24169324282428
 6  0.80568164736474 -1.28323556045605 -0.88904707850785
 8  0.61851191929193 -0.95270788328833 -2.11702269246925
 8  1.93596388298830 -1.78333863246325 -0.39834475697570
 7 -6.71042278447845  2.55126549654965  0.41413516141614
 6 -5.60274083498350  3.20480912411241  0.74733102930293
 6 -5.97680189538954  4.69551923672367  0.66894176277628
 6 -7.23438415181518  4.78291438193819  0.33902048534854
 6 -7.69284098799880  3.53602241064106  0.10963579497950
 6 -5.08422334263426  5.81764919541954  1.04019168716872
 6 -7.95992755405540  6.02979990009001  0.35591511521152
 8 -7.55564948114811  7.18758037463746  0.70369822662266
 7 -8.81707526102610  0.84343520272027 -0.36338898799880
 6 -9.47842151455145  1.89750448574857 -0.35443649594959
 6 -10.96879350965096  1.58387825892589 -0.71267704890489
 6 -10.91252561006100  0.27383828822882 -0.94401525702570
 6 -9.59796145944594 -0.40433859705971 -0.71753383008301
 6 -11.78552532783278  2.63234942804280 -1.04775942674267
 6 -12.12571569206921 -0.59424298659866 -1.24783291699170
 6 -12.05898276037604 -1.12347451265127 -2.91036383108311
 7 -6.80206668956896 -1.39600216151615 -0.29284192869287
 6 -7.94636729832983 -2.19353935063506 -0.37954115211521
 6 -7.52372995809581 -3.69352667506751 -0.43479448954895
 6 -6.22502812401240 -3.67128628952895 -0.03046130673067
 6 -5.83155944464446 -2.16955577007701  0.08336452075208
 6 -8.31060958445845 -4.88614599239924 -0.59770258615862
 6 -4.99249545404540 -4.43601940004000  0.20750877657766
 8 -4.88475022372237 -5.67556809510951  0.14201470807081
 6 -3.87374109950995 -3.46510706990699  0.59321396859686
 6 -3.23000651155116 -3.62860903640364  1.85565527852785
 8 -3.56201144124412 -4.05268200300030  3.00674934473447
 8 -1.94193586848685 -3.53668997429743  1.73914385358536
 6 -1.21259978207821 -3.95954104420442  2.95836026122612
 6  2.99691158395840 -2.09076425332533 -1.60887213131313
 6  4.10518428582858 -1.33290029112911 -1.16174170647065
 6  5.19800055545555 -1.15551242264226 -1.96403260486049
 6  5.21441542534253 -1.43512664736474 -3.36644362656266
 6  6.04347817241724  0.08403075017502 -1.56757331583158
 6  7.53640233423342 -0.65082086418642 -0.89073581088109
 6  8.47572013231323  0.41999763436344 -0.51770025052505
 6  9.81273436283628 -0.35853277357736  0.07170886518652
 6  9.55883339963996 -0.95054386908691  1.40845521432143
 6  10.86991932193219  0.72486734093409  0.05691052945294
 6  12.20115538603860 -0.07699639243924  0.39215752695270
 6  13.17448899149915  1.18442571727173  0.31823472187219
 6  14.75282161736174  0.33705698379838  0.63201786388639
 6  14.88236322442244 -0.33630591109111  2.32550247424742
 6  15.79770939933993  1.33070797279728  0.42916612191219
 6  17.16036551465146  0.77638286268627  0.29614274037404
 6  18.36950649804981  1.70350754195420 -0.43991413821382
 6  19.77943014411441  0.98863735853585 -0.49326941064106
 6  19.81260106140614 -0.02925749544954 -1.61735752695270
 6  20.85468263716372  2.09338075607561 -0.75871096699670
 1 -3.75933657195720  3.29007025802580  1.36028543024303
 1 -9.65185916841684  4.22376146124612 -0.36492012591259
 1 -9.79077156875688 -1.98714911421142 -0.72305513141314
 1 -2.31412392919292 -1.05202282008201  2.06236628492849
 1 -1.77323666226623  1.27753823002300  0.36475292869287
 1 -0.80197158085809  1.11807012141214  2.83308401950195
 1 -2.41043921782178  2.62628120452045  2.59841595939594
 1 -2.51285361786179  0.52252013731373  3.20069593869387
 1 -2.10331935223522 -1.43494476747675 -0.65830361716172
 1 -1.65916108510851 -0.15838731163116 -0.66782657345735
 1  0.33938193649365 -0.26128756205621  0.79479534473447
 1 -0.10657437723772 -2.04915124892489  0.92218245034503
 1 -4.16673120352035  6.28204603250325  0.51217617531753
 1 -6.06238651925193  6.75967864376438  1.38208511461146
 1 -4.33440446864687  5.26458541954195  1.95146291859186
 1 -9.17599061316132  5.74193930313031 -0.13203957975798
 1 -12.31796134973497 -1.53252411991199 -0.52931735893589
 1 -13.06497271227123  0.15301170097010 -1.24059169556956
 1 -13.01138896199620 -1.83838595399540 -3.09035615271527
 1 -11.90228719251925 -0.22372495099510 -3.37319948944894
 1 -11.10097692209221 -1.72105542254225 -3.13212982038204
 1 -8.75775495879588 -4.72214877047705 -1.46476870487049
 1 -7.57574278887889 -5.89968998159816 -0.56430608250825
 1 -8.79035631563156 -4.91974393559356  0.39434404390439
 1 -3.07870745214521 -3.59572329722972 -0.18497680448045
 1  2.89907152255226 -3.26912418621862 -1.44781049814982
 1  2.28855314411441 -1.80062597759776 -2.58268850415042
 1  4.20454778247825 -0.79119186758676 -0.26578297669767
 1  4.40703376037604 -1.20909438193819 -4.07500761576158
 1  5.74851843024302 -1.06813548894889 -3.91707293119312
 1  5.23383721112111 -2.51510412471247 -3.34848903270327
 1  6.52859328122812  0.92534787218722 -2.55655827302730
 1  5.54371948134813  0.94963051085109 -0.70395465886589
 1  7.21743292219222 -1.41044924202420  0.21642336393639
 1  7.59181457985799 -1.65982477277728 -1.60262973887389
 1  8.73493562496250  0.87723831863186 -1.50163294859486
 1  7.94868336643664  1.55738092629263  0.09871557995800
 1  10.16822927002700 -1.08284572827283 -0.76717387498750
 1  8.83991623592359 -2.15426424212421  1.71536989778978
 1  10.53858992839284 -1.24343822502250  1.71873376477648
 1  9.26026923852385 -0.11421264366437  2.20041134623462
 1  10.68110174797480  1.46877963786379 -1.06524369596960
 1  10.45558530513051  1.31421029662966  1.04797867816782
 1  11.93916145834583 -0.41346378587859  1.63053673697370
 1  12.61874402840284 -0.99390761136114 -0.42159515701570
 1  12.89342421242124  1.63241278627863 -1.23560246484648
 1  12.92349439423942  2.64797904920492  0.97787357675768
 1  15.07788921472147 -0.45818333433343 -0.19607779897990
 1  14.53087298719872  0.68162855835583  3.01181395439544
 1  14.14640191369137 -1.20770844274427  2.74050154825483
 1  16.09495652875287 -0.66503008610861  2.46248272597260
 1  15.09512064696470  1.96794678807881 -0.60861083578358
 1  15.93667770037004  2.01163069856986  1.41750007320732
 1  17.60812212731273  0.32599577017702  1.41972215891589
 1  17.15771329552955 -0.27912974377438 -0.70242161956196
 1  18.40289529662967  2.17201374917492 -1.67667065536554
 1  18.49203920002000  2.48312221912191  0.59342601310131
 1  20.20543310451045  0.36810965716572  0.74913826462646
 1  19.83819213721372  0.51111616121612 -2.39058118331833
 1  20.48961325132513 -0.70684248604860 -1.88838297169717
 1  19.14387711471147 -0.74644236263626 -1.22736081078108
 1  21.05945272387239  2.55457503660366  0.04185493909391
 1  21.95433317361736  1.58454503720372 -0.66666938193819
 1  20.83487013991399  2.60334782198220 -1.71849664596460
 1 -0.48582420752075 -4.08025077447745  2.24139248724872
 1 -1.70988066906691 -4.87682495619562  3.83150378697870
 1 -1.17527154045404 -3.28302677977798  3.68561271447145
 8 -12.00349872417242  3.71933673287329 -0.59881169486949
 1 -12.49282979447945  2.18833007310731 -1.44318492349235

