%nproc=4
%Mem=2GB
# td=(NStates=1) iop(3/107=0140000000,3/108=0140000000) iop(3/107=0140000000,3/108=0140000000) CAM-B3LYP/6-31G(d,p) 

TD

0 1
12 -6.70566313841384  0.71901104520452  0.10008762826283
 6 -4.52640974747475 -2.05043346514651  0.45912618961896
 6 -4.04263607900790  2.77611924502450  0.88040092169217
 6 -8.92006471117112  3.42335635973597 -0.09463896559656
 6 -9.07967606520652 -1.54525755535554 -0.70458051675168
 7 -4.63599867176718  0.47705710341034  0.47725675777578
 6 -3.99776704230423 -0.74606431323132  0.66981753715371
 6 -2.55283870247025 -0.56369812901290  0.92730479277928
 6 -2.42788275407541  0.79885003380338  1.14109627212721
 6 -3.80010627352735  1.46163624882488  0.83010778547855
 6 -1.99712599829983  1.32151394729473  2.59159372217222
 6 -1.62586133453345 -1.10209277267727 -0.15248392209221
 6 -0.31915003330333 -1.55834754135414  0.39699877337734
 6  0.78220930013001 -1.58323556045605 -0.65482365616562
 8  0.74709477757776 -1.31414402690269 -1.81104209440944
 8  1.86063635023502 -2.26422672127213 -0.13204812731273
 7 -6.58969071127113  2.57590796079608  0.37918166606661
 6 -5.45129569046905  3.19791843504350  0.68085438163816
 6 -5.64269848504850  4.77716740154015  0.63144801340134
 6 -6.94813552695270  4.80496658715872  0.41802838613861
 6 -7.59776148004801  3.51105991439144  0.21835666706671
 6 -4.67414233453345  5.97117454795479  0.93412108010801
 6 -7.75068662996300  6.11445836593659  0.31979150285029
 8 -7.24078799499950  7.13385500210021  0.61485934273427
 7 -8.51845539903990  0.95595645484548 -0.43747639673967
 6 -9.35973964636464  2.03263799909991 -0.47171822412241
 6 -10.70508713901390  1.65431530263026 -0.83176895809581
 6 -10.84141849934993  0.14969587398740 -1.06237709320932
 6 -9.41706336963696 -0.28957712091209 -0.65278735543554
 6 -11.81735851115111  2.48695488858886 -1.14189884068407
 6 -11.98819193969397 -0.55659922222222 -1.45211334503450
 6 -12.02853971607161 -0.72573473867387 -2.92134492919292
 7 -6.97138362126213 -1.49005156645665 -0.05427807230723
 6 -7.97860052165216 -2.29259925662566 -0.40812401040104
 6 -7.66691427652765 -3.58534585698570 -0.33083409350935
 6 -6.21910753195320 -3.50556971787179 -0.05300356095610
 6 -5.88630491919192 -2.14492330683068  0.01453763806381
 6 -8.44825334883488 -4.83120049784979 -0.82421523742374
 6 -5.03594979947995 -4.38927472557256  0.06823484918492
 8 -4.92305405410541 -5.52221275957596  0.25469597619762
 6 -3.92884661006101 -3.35017557675768  0.64419906710671
 6 -3.37886139703970 -3.73438961446145  1.92563227622762
 8 -3.99341458155816 -3.87645438023802  2.93321199099910
 8 -2.21675335023502 -4.00220652595260  1.68888882808281
 6 -1.29215773787379 -4.05220031013101  2.99020344554455
 6  3.02580447324732 -2.40745592249225 -1.04937618171817
 6  4.00006377377738 -1.40748774987499 -0.86199173147315
 6  5.07868862426243 -1.10394726612661 -1.68286448804880
 6  4.96605058885889 -1.59348248294829 -3.06358334053405
 6  6.09049287388739 -0.23187083998400 -1.44326088458846
 6  7.50115880988099 -0.77413319541954 -1.02096883418342
 6  8.42040460076008  0.28819445404540 -0.68815729622962
 6  9.72602569196920 -0.34990191049105 -0.13592189788979
 6  9.44615213151315 -1.17419623432343  1.26674104290429
 6  11.01378370837084  0.55632048624862  0.22757759615962
 6  12.28238350885088 -0.09807850065007  0.42429074027403
 6  13.21592313491349  0.98360563526353  0.34903780218022
 6  14.65562189738974  0.46182946104610  0.53091775387539
 6  14.76672166026603 -0.03082536303630  2.11766169016902
 6  15.66231585998600  1.58641354335434  0.25467867316732
 6  16.93903338143814  0.96168139253925 -0.10239711361136
 6  18.21124067146715  1.91807899909991 -0.35558570537054
 6  19.53192539363937  1.12764125892589 -0.52071215491549
 6  19.56702650395039  0.59461489178918 -1.79619541074107
 6  20.50843801270127  2.52854427242724 -0.59074417031703
 1 -3.45357599589959  3.79930118111811  0.87214661636164
 1 -9.60627460996099  4.41430051515152  0.31828819491949
 1 -10.12698519011901 -2.09239963926393 -0.84606743264326
 1 -2.17720023682368 -1.19213683148315  2.00206025432543
 1 -1.38340767936794  1.32542301850185  0.58592504590459
 1 -0.94111549524952  0.84280259465947  2.76745745684569
 1 -1.80493866776678  2.30529910631063  2.55970208800880
 1 -3.05324765726573  1.16689457475748  3.30495636473647
 1 -2.41959097939794 -2.06098737173717 -0.95112289908991
 1 -1.25369053805381 -0.18629010191019 -0.99694948574857
 1  0.33385138343834 -0.88807024032403  0.96734259945995
 1 -0.20524424422442 -2.48145447924793  1.06537676977698
 1 -3.70143467386739  5.83679150705070  0.10723568126813
 1 -5.41950223082308  6.96270894679468  1.04757166326633
 1 -4.33191421962196  5.62409137013701  1.75998377067707
 1 -9.07331034513451  5.86775188438844  0.19682330653065
 1 -12.12908246184618 -1.56027689518952 -0.91490591779178
 1 -12.82873908890889  0.16952335213521 -1.34160179657966
 1 -12.71539936303630 -1.07007912331233 -3.46834395149515
 1 -11.83870083388339  0.23401082258226 -3.25138730823082
 1 -11.11699852425243 -1.04341765876588 -3.50366697409741
 1 -8.91387057035704 -5.10892744834483 -2.02560478847885
 1 -7.29900511511151 -5.69261927452745 -0.25549520142014
 1 -9.28847612761276 -4.90113207440744  0.04353896339634
 1 -3.26546612801280 -3.74910863576358 -0.28009631643164
 1  3.46442805820582 -3.36517379117912 -0.82100781788179
 1  2.87665195399540 -2.42506842184218 -2.35665590089009
 1  3.96393372107211 -0.71137388578858  0.18616221782178
 1  4.23838689568957 -1.00464393689369 -3.81829194419442
 1  6.22205578397840 -1.68591726712671 -3.50669189308931
 1  4.94813864126413 -2.80328294259426 -3.23611779557956
 1  6.49599002090209  0.61981731913191 -1.92179479667967
 1  6.05264037343734  0.44256980478048 -0.62886715011501
 1  7.24427560646065 -1.89107730483048 -0.47950622902290
 1  7.52040743914391 -1.53057184748475 -1.92396187208721
 1  8.60719285068507  0.78693928872887 -1.25492827812781
 1  8.24378287638764  0.77329251745175  0.16753246164617
 1  10.12207465456546 -1.02400984468447 -0.95121227882788
 1  8.24512675697570 -1.64466328202820  1.07588594939494
 1  10.29877594699470 -1.86084996619662  1.85943783518352
 1  9.27932114371437 -0.28623984638464  2.04155546064607
 1  11.23795743354336  1.22462522242224 -0.50749792139214
 1  10.61330107670767  0.75464434003400  1.14951883218322
 1  12.30954849704970 -0.61509394889489  1.61244492779278
 1  12.64527668166817 -0.97669589018902 -0.53303630113011
 1  13.12197706770677  1.68462800780078 -0.28660756535654
 1  13.11692373717372  1.80804505580558  1.34360014941494
 1  14.97820924672467 -0.16558407440744 -0.25487367856786
 1  14.40804070397040  0.71817221272127  3.05550832383238
 1  14.25609288278828 -0.78458613051305  2.31721922002200
 1  16.02338937203720 -0.14954853795380  2.24444092179218
 1  15.04728586348635  2.24938493189319 -0.62416239093909
 1  15.72012604520452  2.05864540004000  1.07662598579858
 1  17.27834915001500  0.46203937453745  1.09946013271327
 1  16.92834035823582  0.08660682988299 -0.70616199359936
 1  17.90459546664667  2.74236078387839 -1.26253924222422
 1  18.30401039713972  2.57944185108511  0.67523419391939
 1  19.67676023722372  0.41273411961196  0.27692104290429
 1  19.36374469246925  1.20515556515652 -2.68502062726273
 1  20.66499078907891  0.10437863606361 -2.06457059045905
 1  18.66396912391239 -0.28156587498750 -1.93891196589659
 1  20.64740151875187  3.15874545364537  0.14924567816782
 1  21.52711045134514  2.30872745544554 -0.65828854385439
 1  20.15266191909191  3.16252373957396 -1.25626042234223
 1 -0.69083470857086 -4.83502625202520  2.34590293829383
 1 -1.92077175817582 -4.62214948864887  3.92539317591759
 1 -0.64988900220022 -2.74979345644565  3.29801395459546
 8 -11.87645601990199  3.79596439563956 -0.91616343004300
 1 -12.80765127662766  1.78502974307431 -1.37602820782078

