%nproc=4
%Mem=4GB
# td=(NStates=1) iop(3/107=0140000000,3/108=0140000000) iop(3/107=0140000000,3/108=0140000000) CAM-B3LYP/6-31G(d,p) 

TD

0 1
12 -5.55002650925092  1.25281015531553  0.12850145534553
 6 -4.94939532673267 -2.15852431573157 -0.43199006580658
 6 -3.39591838093809  1.16933721852185  2.70703607690769
 6 -6.20520931663166  4.57393065726573  0.75422563136314
 6 -7.97687345444544  1.20081093179318 -2.34822249574957
 7 -4.27023127642764 -0.20666885868587  0.94022536133613
 6 -4.17797132463246 -1.59244294589459  0.59457180678068
 6 -3.20845396989699 -2.29334263706371  1.44849921362136
 6 -2.99657282828283 -1.29799269016902  2.57740429652965
 6 -3.56389381678168 -0.02847547524752  2.05315990119012
 6 -3.44973801320132 -1.64968841024102  4.03727642704270
 6 -1.89381457465747 -2.67522493179318  0.59237454295430
 6 -0.97385902940294 -3.47869545014501  1.42334592259226
 6  0.30926602710271 -3.74658849954995  0.69352754745475
 8  0.50194025832583 -3.35563287688769 -0.45458169236924
 8  1.04739158485849 -4.73862347964796  1.24380898819882
 7 -4.81291210751075  2.56568594549455  1.48274850655066
 6 -3.94926701650165  2.41573899559956  2.47755835913591
 6 -3.65977548124812  3.70636913911391  3.17297785398540
 6 -4.48415896859686  4.65404693299330  2.55793506480648
 6 -5.27815391959196  3.90907900310031  1.52942903520352
 6 -2.75012037513751  3.73529090489049  4.38809299869987
 6 -4.71866839743974  6.09544696519652  2.99415892069207
 8 -4.04514456245625  6.68233612161216  3.83422732263226
 7 -6.85597939783978  2.58940883668367 -0.62940459675968
 6 -6.98736145094509  3.91661127832783 -0.32416410511051
 6 -7.98575376177618  4.54588131293129 -1.15797990749075
 6 -8.51067052035203  3.61613854375438 -2.04680362476248
 6 -7.71771066156616  2.41638764756476 -1.69548549504950
 6 -8.45693868476848  5.96868677807781 -1.15076458525853
 6 -9.44684904820482  3.69935033323332 -3.12591722452245
 6 -8.75221667536754  4.09655780198020 -4.52360876487649
 7 -6.32740115911591 -0.12220723842384 -1.14932002400240
 6 -7.42479200880088 -0.01924799339934 -2.12007621832183
 6 -7.50371787898790 -1.34352605620562 -2.81123364596460
 6 -6.82768231703170 -2.23566313811381 -2.11816798249825
 6 -5.95820423582358 -1.45515908100810 -1.14818094849485
 6 -8.58982444024402 -1.60731085708571 -3.73838073427343
 6 -6.29091275837584 -3.59549513341334 -2.05765932103210
 8 -6.55923031853185 -4.60035773417342 -2.63807007210721
 6 -5.09277783988399 -3.58981703430343 -0.87013933373337
 6 -5.34041151855185 -4.63206864796480  0.19083275507551
 8 -5.85753152475248 -4.49917892599260  1.30564692809281
 8 -4.99530922912291 -5.78377957435744 -0.36442958755876
 6 -5.29675723992399 -6.95147700100010  0.45882771257126
 6  2.36070704390439 -5.00319143934393  0.67499145354535
 6  3.40983551855185 -4.09716987788779  1.02181008080808
 6  4.08954834503450 -3.28392126222622  0.20931456645665
 6  3.79411375027503 -3.09407434873487 -1.25310481498150
 6  5.08451487728773 -2.47658270587059  0.78765256405641
 6  6.50584545584558 -2.76765969116912  0.06709817721772
 6  7.63902922652265 -1.88009736523652  0.62380807130713
 6  9.01633245454545 -2.04903973757376 -0.08263604610461
 6  9.51142752445245 -3.54152479287929  0.12750929322932
 6  10.04498507760776 -1.02250248764876  0.52308482398240
 6  11.35512281468147 -0.88791839873987 -0.33529229542954
 6  12.19016670527053  0.22911753925393  0.12888973657366
 6  13.47425988178818  0.50682555245525 -0.69097386058606
 6  14.52257055605561 -0.67234663726373 -0.55746989788979
 6  14.17640357995800  1.73153932553255 -0.13975323012301
 6  15.50993518391839  2.05182321052105 -0.87957295229523
 6  15.94736732113211  3.56379113191319 -0.67604821802180
 6  17.32454770387039  4.01073891549155 -1.38394232943294
 6  17.17476006570657  4.02825771747175 -2.83579580378038
 6  17.94500390649065  5.18086335163516 -0.66774623352335
 1 -2.50809653245325  1.09567384278428  3.53389385778578
 1 -6.61678965776578  5.60410579097910  0.96685567726773
 1 -8.76670707790779  1.11569187208721 -3.15494097289729
 1 -3.62945401020102 -3.17392270767077  2.02118017881788
 1 -1.85740286418642 -1.14684234583458  2.68358963506351
 1 -2.76557633673367 -2.46551971317132  4.31583512751275
 1 -3.48891968466847 -0.90032993739374  4.61488351815181
 1 -4.48943145484549 -1.73130221112111  3.99110306080608
 1 -2.31394670837084 -3.22223174047405 -0.30325094889489
 1 -1.21444927732773 -1.62298141444144  0.38083620522052
 1 -0.75559099259926 -3.05985728132813  2.44058827752775
 1 -1.34653937553755 -4.39995712691269  1.75925772377238
 1 -1.68064817861786  3.52986251065107  4.20749665936594
 1 -2.86511750185018  4.71998920492049  4.72514877257726
 1 -3.22024501950195  3.02936393389339  5.05415042104210
 1 -5.61993505740574  6.52269646404640  2.52832815421542
 1 -10.00485961946194  2.81547220432043 -3.46695994769477
 1 -10.12865366326633  4.61472531663166 -3.30486077677768
 1 -9.53243304310431  4.44208262226223 -5.31874707700770
 1 -8.08829833923392  5.00328007340734 -4.54565452045204
 1 -8.11333118211821  3.19632899169917 -4.84931485628563
 1 -8.14890247984798 -1.11885242814281 -4.71244224252425
 1 -8.92542352535254 -2.67227063216322 -3.87051968896890
 1 -9.48524860436044 -1.11249807320732 -3.31256816351635
 1 -4.09947730513051 -3.92962778937894 -1.53468675557556
 1  2.53464459745975 -6.04630257325733  0.90618657555756
 1  2.15648639203920 -5.05269224532453 -0.42605605520552
 1  3.61294341664166 -4.05014429622962  2.06161116871687
 1  2.77245223192319 -3.23521914301430 -1.63436597759776
 1  3.83323793709371 -1.98125168446845 -1.66616908740874
 1  4.32599477347735 -3.63916764596460 -1.85249417531753
 1  4.99023906480648 -1.32113853785379  0.50760264376438
 1  5.17152567986799 -2.84927656005600  1.73704858515852
 1  6.59281680838084 -3.76629982208221  0.35834371837184
 1  6.32675283568357 -2.69050665966597 -1.06059665516552
 1  7.22093102440244 -0.83743706880688  0.33990123562356
 1  7.80539264216422 -2.10881746484649  1.60445483078308
 1  8.84309841914191 -1.75003327852785 -1.16272961106111
 1  8.75724024272427 -4.10670944234423 -0.28669246164616
 1  10.20677001780178 -3.74805900800080 -0.67801791529153
 1  9.86204526592659 -3.82664375587559  1.08278872157216
 1  9.61429057965797 -0.03879815361536  0.42507787158716
 1  10.29251934943494 -1.28892542644264  1.50680022002200
 1  11.85388052935294 -1.86138617051705 -0.12273664686469
 1  11.20590667736774 -0.75302820772077 -1.33353468706871
 1  11.50593162666267  1.18918334753475  0.24467491229123
 1  12.73438826212621 -0.20642945154515  1.06154443464346
 1  13.44593139383938  0.73288772107211 -1.75603784248425
 1  14.94280361866187 -0.90805901860186  0.41214689468947
 1  14.20190576157616 -1.69719873617362 -0.80565688718872
 1  15.52627361576158 -0.60026322452245 -1.01790868336834
 1  13.64140233443344  2.71073569266927 -0.37436922462246
 1  14.23787048734873  1.52537282648265  0.95420263416342
 1  16.29506116191619  1.38366697939794 -0.56102259295930
 1  15.45094067746775  2.02213612641264 -2.09416079577958
 1  15.01329273387339  4.24021939993999 -0.73762576067607
 1  16.05246801690169  3.79057569896990  0.55273517391739
 1  17.85250893229323  3.14494598579858 -1.08429750935093
 1  16.47403812421242  4.79712624152415 -3.18211057085709
 1  17.92262818631863  4.30524003730373 -3.22007661276128
 1  17.03957415761576  3.21869293929393 -3.14399243384338
 1  17.75089113631363  4.97272849034904  0.37682934713471
 1  18.95961348364836  5.31973612581258 -0.81575849024902
 1  17.37225877677768  6.00291979507951 -0.88012207350735
 1 -4.96173147454745 -7.74702413551355 -0.05594913261326
 1 -6.42838726902690 -7.03140022662266  0.52463597109711
 1 -4.78963713231323 -6.93470504610461  1.46037049364937
 8 -7.93377096869687  6.86723322412241 -0.48599638363836
 1 -9.33064136123612  6.29103474837484 -1.88669435223522

