%nproc=4
%Mem=2GB
# td=(NStates=1) iop(3/107=0140000000,3/108=0140000000) iop(3/107=0140000000,3/108=0140000000) CAM-B3LYP/6-31G(d,p) 

TD

0 1
12 -6.77673024512451  0.53388253235324  0.20976859635964
 6 -4.61370847734773 -1.94489291109111  0.59880015701570
 6 -4.29200101550155  2.92336396949695  0.79697257885789
 6 -9.08049075377538  3.19194321842184 -0.20878037973797
 6 -9.35887398499850 -1.78131116071607 -0.46016607530753
 7 -4.64861993389339  0.44996439413941  0.56540557265727
 6 -4.05404266986699 -0.78160786758676  0.71041159655966
 6 -2.53348676727673 -0.41631339053905  0.83590565286529
 6 -2.47502746854685  1.14099424822482  0.98192035453545
 6 -3.82875913881388  1.53993407860786  0.89105388008801
 6 -1.93676996269627  1.42701449734973  2.47256181898190
 6 -1.56670541894189 -0.96154871827183 -0.40691936563656
 6 -0.06700481878188 -1.21921362796280  0.27602667616762
 6  0.89406048524852 -1.22316955385539 -0.97920609440944
 8  0.76691675977598 -0.83862647514752 -2.20470146034603
 8  1.88920920752075 -2.07833813241324 -0.49323424592459
 7 -6.70572231443144  2.68173854385439  0.30977472537254
 6 -5.57684824572457  3.39425806900690  0.59114541074107
 6 -5.89001321652165  4.80272995779578  0.45748061666167
 6 -7.26325703910391  4.87157324782478  0.21755833913391
 6 -7.72321402530253  3.47857666606661  0.15946077747775
 6 -5.08022294259426  5.87503493399340  0.68022569056906
 6 -8.09971153245325  6.13084000410041  0.40673019671967
 8 -7.68776269246925  7.32374399099910  0.34665252205220
 7 -8.75006856035604  0.59218007720772 -0.28453110221022
 6 -9.58146181858186  1.72539727502750 -0.32450350265026
 6 -11.00803743404340  1.41247111821182 -0.67800358155816
 6 -10.98030238773877  0.02321322572257 -0.80880173567357
 6 -9.64689635293529 -0.39880804400440 -0.56032810951095
 6 -12.15139191449145  2.36151234433443 -0.75910056085609
 6 -12.06452957345735 -0.80118368066807 -1.08778691239124
 6 -12.19244610671067 -1.07463962916292 -2.55088788348835
 7 -6.96454293719372 -1.29420198149815  0.01806916241624
 6 -7.90836349794979 -2.22742273897390 -0.22733593159316
 6 -7.51050863596360 -3.68196551895190 -0.22222323242324
 6 -6.14025964716472 -3.56573573447345 -0.08534679527953
 6 -5.83145943464346 -1.98632744724472  0.05764194849485
 6 -8.42911143464346 -4.84412178997900 -0.53889670557056
 6 -5.01793799829983 -4.28331412951295  0.18019604530453
 8 -4.76119786848685 -5.53341387968797 -0.00820031343134
 6 -3.77782150755075 -3.30969152835283  0.48763341054105
 6 -3.26509001990199 -3.71558773427343  1.78317803080308
 8 -3.97048228832883 -4.08778551335134  2.76958562836284
 8 -1.74292596749675 -3.58833513881388  1.80140007920792
 6 -0.99978850095009 -3.67370246034603  3.05659008420842
 6  3.02021391419142 -2.36480165706571 -1.56083732783278
 6  4.06409017641764 -1.31382838393839 -1.22448798109811
 6  5.02061281668167 -0.93238010941094 -1.91963816541654
 6  5.20269425322532 -1.25166830153015 -3.30122710491049
 6  6.00352417701770  0.05222756985699 -1.55075163366337
 6  7.27293598759876 -0.56099188128813 -1.03302003930393
 6  8.50153271357136  0.28851448604861 -0.51141962246225
 6  9.75477856725673 -0.48680560086009  0.03942563686369
 6  9.44070158645865 -1.15082389708971  1.26612098089809
 6  10.91205353535354  0.59705455965597  0.01863670207021
 6  12.16202147264726 -0.16031472427243  0.09343765496550
 6  13.38564010661066  0.90122739743974  0.22348524692469
 6  14.71862819801980  0.27592087018702  0.33196785888589
 6  14.92086707480748 -0.54237651815182  1.59882980698070
 6  15.94461408980898  1.36942184418442  0.39939314461446
 6  17.48910838893889  0.53087831223122  0.22013513961396
 6  18.50844039143914  1.59294648584858  0.17192704590459
 6  19.93246544764476  1.13434192899290 -0.07218730243024
 6  20.11277107840784  0.61038646894689 -1.58524431563156
 6  21.03517068596860  2.10017143514351  0.10718562266227
 1 -3.41654229252925  3.63116436743674  0.89311871357136
 1 -9.95204918741874  3.75617470257026 -0.24386802070207
 1 -10.13031552315231 -2.51097149644965 -0.74713753965397
 1 -2.27353987078708 -0.95674329212921  1.60583063136314
 1 -1.90054939353935  1.62528300450045  0.10999745314531
 1 -0.83851523522352  1.08328664306431  2.62022273337334
 1 -1.75367354125413  2.58772734913491  2.54011012881288
 1 -2.98050038253825  0.88234611991199  3.30975684478448
 1 -1.83965298559856 -1.82518379137914 -0.83886167296730
 1 -1.78904407340734 -0.29454092699270 -1.05538532933293
 1  0.28162616091609 -0.11091252455246  0.78025389058906
 1  0.11704798499850 -1.94954128792879  1.12568280038004
 1 -3.82329686008601  5.58988681658166  0.49370432813281
 1 -5.44485476607661  6.82464514041404  0.16798370447045
 1 -5.09883091129113  6.04088304930493  2.32874064636464
 1 -9.35884889898990  6.01064617381738  0.54097772197220
 1 -11.86146570017002 -1.92163303080308 -0.74225865306531
 1 -12.93548976397640 -0.27448104830483 -0.88332596899690
 1 -13.04597242034203 -1.66909902530253 -2.83416053315332
 1 -12.43582054585459 -0.15094767326733 -3.38960112961296
 1 -10.97351417581758 -1.49530284728473 -2.82945955335534
 1 -9.05114429772977 -4.61671822742274 -1.36383861186119
 1 -7.84704991959196 -5.93885389798980 -0.83936358825883
 1 -9.10126740674067 -5.07232919411941  0.37623223272327
 1 -2.78570815221522 -3.47606133103310 -0.00856916371637
 1  2.99247086248625 -3.67207448124812 -1.33397911501150
 1  2.63781807060706 -2.31071698669867 -2.63809404470447
 1  4.06887421512151 -0.81199394779478 -0.13456985538554
 1  4.24198725572557 -0.99084255675568 -3.99062917791779
 1  6.14008758715872 -0.77514619001900 -3.82973419731973
 1  5.38432225962596 -2.36785940024002 -3.30024420822082
 1  6.01281170307031  0.70145548294829 -2.44899751695170
 1  5.32020713011301  0.87953350115012 -1.18201246464646
 1  7.05451663056306 -1.44537273437344 -0.40840911931193
 1  7.74550994939494 -0.86852564286429 -1.94461393729373
 1  8.58214034543454  1.03940453525353 -1.34887767306731
 1  8.26042454055406  0.88965415361536  0.38035374377438
 1  10.01414386148615 -1.18803624732473 -0.66191334893489
 1  8.39377162146215 -1.77771658735874  1.13690205100510
 1  10.30054612401240 -1.81203508470847  1.57276916831683
 1  9.21317452905291 -0.49070029242924  2.20346165126513
 1  10.56819045684568  0.92635539543954 -1.13001017261726
 1  10.75288503510351  1.34502337793779  0.76872075237524
 1  12.40154769696970 -0.80981342084208  0.82783646694669
 1  12.24727688168817 -1.13238145874587 -0.82641563906391
 1  13.26984185418542  1.41601114611461 -0.80924982958296
 1  13.15401744654465  1.59435368666867  0.92813860326033
 1  14.66626805260526 -0.24118163416342 -0.64891308250825
 1  14.62810271017102  0.20720111561156  2.50259303230323
 1  14.19716699019902 -1.43892156405641  1.66877437553755
 1  15.94315134823482 -0.85793937703770  1.72542902060206
 1  15.74555569046905  2.02948294169417 -0.84719469416942
 1  15.83600763336334  1.91059059455946  1.24230255345535
 1  17.38765008010801 -0.47246407580758  1.30303048974898
 1  17.73699122332233 -0.22900473127313 -0.51262263966397
 1  18.26926193329333  2.57406395419542 -0.66580956925693
 1  18.68692868896890  2.12917682458246  1.06208287878788
 1  20.02905546674668  0.07929077527753  0.54099745054505
 1  20.07639595759576  1.29207425702570 -2.51072319751975
 1  21.24052834283428 -0.06489829162916 -1.55579971337134
 1  19.22381510851085 -0.30386810521052 -1.49931800650065
 1  20.78342512111211  2.52651223032303  1.35647640124012
 1  22.31952969326933  1.58139472217222  0.47059434443444
 1  20.95342199509951  3.17070455765577 -0.92359715601560
 1 -0.11897752285229 -4.14529727912791  2.36533488148815
 1 -1.43174285528553 -4.31346862056206  4.12804344094409
 1 -0.85197921122112 -2.89502797989799  3.37149130233023
 8 -12.11110948524852  3.60708550775078 -0.61972378607861
 1 -13.16679719121912  1.77232847294729 -0.86041664666467

