%nproc=4
%Mem=2GB
# td=(NStates=1) iop(3/107=0140000000,3/108=0140000000) iop(3/107=0140000000,3/108=0140000000) CAM-B3LYP/6-31G(d,p) 

TD

0 1
12 -6.64068664076408  0.70034917901790 -0.02168454895490
 6 -4.59630673717372 -1.91305972777278  0.40887116411641
 6 -4.20092190759076  2.82304393749375  0.79556243784378
 6 -8.88657136183618  3.19646367046705 -0.18422792449245
 6 -9.22958105570557 -1.77284031363136 -0.56582664136414
 7 -4.50995606750675  0.40550994869487  0.51214024612461
 6 -3.95832309790979 -0.69723943074307  0.65521607700770
 6 -2.51711513011301 -0.52553431263126  0.97494955725573
 6 -2.37471743754375  1.07102725152515  1.32055421792179
 6 -3.78127439033903  1.59005909110911  0.85239001370137
 6 -2.03364965066507  1.34100589648965  2.83743830663066
 6 -1.53400214861486 -0.93382594599460 -0.12673134683468
 6 -0.18304642294229 -1.17266897349735  0.54434350785079
 6  0.95799687888789 -1.40750798769877 -0.53941211501150
 8  0.83986405450545 -0.75652826532653 -1.67330832103210
 8  1.87254754135414 -2.36759705830583 -0.18942386488649
 7 -6.62104384658466  2.57977834783478  0.33041678957896
 6 -5.49551011191119  3.37588623182318  0.77961425762576
 6 -5.86715093029303  4.88229791459146  0.80128499709971
 6 -7.20397111051105  4.90079617011701  0.45205178847885
 6 -7.59993169706971  3.53735254365437  0.09732456385639
 6 -4.96320124042404  5.96537396789679  1.17781544954495
 6 -7.95888745004500  6.03035995609561  0.09570909460946
 8 -7.61479539573957  7.10722233883388  0.47980583738374
 7 -8.50996454995499  0.75858671787179 -0.57246989608961
 6 -9.32235590799080  1.81137587288729 -0.56281733403340
 6 -10.84176080638064  1.53215308640864 -0.95438121932193
 6 -10.94200855835584  0.17207811221122 -0.97727858335834
 6 -9.56536820012001 -0.39701786498650 -0.67381945864586
 6 -11.74746152145214  2.55026121922192 -1.33212786358636
 6 -12.23650677117712 -0.69830339263926 -1.15203333703370
 6 -12.33794065616562 -1.08402056725673 -2.64369716441644
 7 -6.93740022292229 -1.39178173947395 -0.17509015351535
 6 -7.95185784738474 -2.26732672937294 -0.46838003600360
 6 -7.57961554665467 -3.64730205260526 -0.37507851795180
 6 -6.19942556375638 -3.56921608250825 -0.09623788438844
 6 -5.87893418211821 -2.08734754925492  0.14638082238224
 6 -8.47588611211121 -4.82682005980598 -0.78154096999700
 6 -5.08587479197920 -4.28617441554155  0.23665169086909
 8 -4.83395514421442 -5.46834737303730  0.08651915851585
 6 -3.82248597399740 -3.28158871807181  0.49976462366237
 6 -3.39583309420942 -3.67817399289929  1.89846955995600
 8 -3.93628886898690 -3.98147488228823  2.92477114691469
 8 -2.00179185408541 -3.56147245254525  1.69718965816582
 6 -1.27751627372737 -3.96816190629063  3.12505693089309
 6  2.94274616741674 -2.60117529442944 -1.14047529162916
 6  4.06609037643764 -1.63883088418842 -0.95729126142614
 6  5.00166092149215 -1.17245411681168 -1.86960316191619
 6  5.05449943374337 -1.51649478417842 -3.36285326752675
 6  6.05449927452745 -0.16865451835183 -1.30925748424842
 6  7.35647434143414 -0.84878066016602 -0.74211094839484
 6  8.40795335563556  0.20918655325533 -0.39923840434043
 6  9.69127221662166 -0.47146406670667 -0.14800310601060
 6  9.41280879717972 -1.18995781048105  1.45517988678868
 6  10.75185751575158  0.54610946514651  0.00514535293529
 6  12.15999126962696 -0.15322401520152  0.05021333253325
 6  13.41928347094709  0.88865614031403  0.07988088648865
 6  14.70302663786379  0.34680795889589  0.12929759185919
 6  14.88342333043304 -0.46572885338534  1.39609953395339
 6  15.83580320872087  1.27706260826083  0.06532973827383
 6  17.25925540364036  0.71185641004100 -0.05605247914791
 6  18.23561310871087  1.82618981018102 -0.08315846264626
 6  19.57290949204921  1.35186368116812 -0.25453553725373
 6  19.78362816411641  0.88791422172217 -1.66122191339134
 6  20.87716488538854  2.34905632363236  0.16829173327333
 1 -3.18538917721772  3.62354360536054  0.75377477917792
 1 -9.58422240474047  4.05918500360036 -0.28434206810681
 1 -10.17941043264326 -2.19567996729673 -0.60417324322432
 1 -2.15089760656066 -0.93801141894189  2.04198424672467
 1 -1.78426776537654  1.92023249944994  0.39637609100910
 1 -0.88079946364636  0.89460777517752  3.10858156925693
 1 -2.25514368826883  2.70474905130513  2.89731584938494
 1 -2.83866619911991  0.40601848714872  3.28979484858486
 1 -1.84736375667567 -2.07595886888689 -0.33018080488049
 1 -1.40714588358836 -0.43622509540954 -0.98880867166717
 1  0.06682468076808 -0.20326175947595  1.07713357855786
 1 -0.03246696649665 -2.11951828562856  1.03359359145915
 1 -4.12463699409941  6.19553738163816  0.33326828452845
 1 -5.64234451505151  7.04357703360336  1.02032893899390
 1 -4.86042707090709  5.90042900390039  2.20758853115312
 1 -8.64076709080908  5.79667477667767 -0.54265064086409
 1 -12.26631618521852 -1.42283315081508  0.15925149794980
 1 -13.16528274327433 -0.39821342154215 -0.93379101550155
 1 -13.29163698679868 -1.74726684208421 -2.97868498559856
 1 -12.55296226002600 -0.12857543604360 -3.37339950945095
 1 -11.30834765916592 -1.75923924092409 -2.70347695509551
 1 -8.65539472277228 -4.72736929252925 -1.76063829182918
 1 -7.87231244584458 -5.93234324692469 -0.29036868876888
 1 -9.43250053005301 -4.74446640784078 -0.33439883038304
 1 -3.01760134153415 -2.96388011291129 -0.27683599039904
 1  3.30652226762676 -3.57516479027903 -0.98295401250125
 1  2.52371666046605 -2.87793370837084 -2.20439067436744
 1  4.00692802050205 -1.03204595299530  0.20849445104510
 1  4.21340439743974 -0.74943841634163 -3.99122923792379
 1  5.94264784318432 -1.09229790519052 -3.77311853575358
 1  4.66244007140714 -2.93177579187919 -3.56472065586559
 1  6.24869529142914  0.41740707810781 -2.29263188038804
 1  5.75069017841784  0.60397594539454 -0.51713597699770
 1  7.24141532043204 -1.65410360746075  0.20677239883988
 1  7.64093949234923 -1.59799859015902 -1.45416489238924
 1  8.42489462086209  0.74473506830683 -1.51318410371037
 1  7.94674317241724  1.21199638783878  0.27384309270927
 1  9.61361380848085 -1.43237068076808 -0.90263742134213
 1  8.56380862516252 -1.84760357605761  1.31117947874788
 1  10.30837690709071 -1.93696757795780  1.67229912131213
 1  9.34802801440144 -0.20047126952695  2.42336364146415
 1  10.56530016781678  1.30812357225723 -0.72886005760576
 1  10.72143188978898  1.10609948554855  0.91151503180318
 1  12.15506304850485 -1.09910234973497  0.49585326862686
 1  12.11385353935394 -0.41366958755876 -0.80470346784678
 1  12.80856572657266  1.39566911191119 -0.60263916851685
 1  13.39231127592759  1.56380063136314  0.85776156555656
 1  14.98313973977398 -0.58188570457046 -1.00626881808181
 1  14.65745564546455  0.32568296379638  2.25095786878688
 1  14.21350862436243 -1.18257592949295  1.20333783188319
 1  15.96051308440844 -0.40510409350935  1.60438691639164
 1  15.80193132803280  2.13795378877888 -0.24133410811081
 1  15.94232826542654  1.57955749124913  0.82817114031403
 1  17.53268458355835 -0.13004983438344  0.77717790449045
 1  17.18830635483548  0.20482865206521 -1.03783516091609
 1  17.73261826892690  2.47911445924592 -0.65178816711671
 1  18.02977297339734  2.32408631553155  0.82341901240124
 1  19.55191775297530  0.49617246344635  0.36073942474247
 1  19.77009532753275  1.57686273587359 -2.26155828102810
 1  20.82657694769477  0.69846804500450 -1.70777491089109
 1  19.13012573957396  0.04031631323132 -2.04728280298030
 1  20.74007078567857  2.48884846394640  1.17341809540954
 1  21.74623236353635  1.73880046274627  0.21644892989299
 1  21.00269692259226  3.27232471967197 -0.50171496779678
 1 -0.48375400050005 -4.20251300070007  2.21482983098310
 1 -1.74514419541954 -4.66508378207821  3.92123275987599
 1 -1.00559457275728 -3.06998547564756  3.91411556475648
 8 -11.50660903520352  3.75306010521052 -1.21908372207221
 1 -12.67189770127013  2.06523776387639 -1.77911851685168

