%nproc=4
%Mem=4GB
# td=(NStates=1) iop(3/107=0140000000,3/108=0140000000) iop(3/107=0140000000,3/108=0140000000) CAM-B3LYP/6-31G(d,p) 

TD

0 1
12 -5.71386289288929  1.29372424672467  0.24218282348235
 6 -5.01873226042604 -2.17625608890889 -0.34417128392839
 6 -3.37562635173517  1.11491177597760  2.80407578087809
 6 -6.10909970567057  4.64378764296430  0.55572578137814
 6 -7.93591935903590  1.19127997869787 -2.35288296179618
 7 -4.30871512481248 -0.43382157395740  1.11029236803680
 6 -4.19280280778078 -1.66696039763976  0.70018236783678
 6 -3.11014413891389 -2.33725702850285  1.50964532823282
 6 -2.84574774577458 -1.31930482138214  2.61492804890489
 6 -3.54914234163416 -0.10319294699470  2.10244482968297
 6 -3.50435347474747 -1.74566800820082  3.89918261766177
 6 -1.99011420462046 -2.62987039633963  0.62518782428243
 6 -1.00344198769877 -3.61782936353635  1.41084467246725
 6  0.32849795029503 -3.91768560926093  0.72873106780678
 8  0.52468253255326 -3.47845515911591 -0.40743697789779
 8  1.05824266996700 -4.75046466376638  1.37511211851185
 7 -4.92158297459746  2.69415879277928  1.51846207790779
 6 -4.03827591739174  2.40916833853385  2.62624322762276
 6 -3.76970647434743  3.71238974117412  3.28888944514451
 6 -4.53737429012901  4.66262779107911  2.68251752305231
 6 -5.21055715991599  4.02249034423442  1.55799189148915
 6 -2.70677604070407  3.98920629642964  4.28067225662566
 6 -4.63142967356736  6.12609002950295  3.02835234003400
 8 -3.99797984598460  6.65620350835083  3.90127402730273
 7 -6.84486828672867  2.68710860666067 -0.77558921522152
 6 -6.90106282108211  3.97588720592059 -0.41272296099610
 6 -7.86954214061406  4.55420214501450 -1.21815592509251
 6 -8.45740519381938  3.55973290319032 -2.03200214461446
 6 -7.74697358785879  2.37198320712071 -1.65310125662566
 6 -8.29393238413841  5.99224913431343 -1.24913442224222
 6 -9.41291565486549  3.83289368756876 -3.11777641044104
 6 -8.71796325002500  3.90023817001700 -4.48400480448045
 7 -6.36670508950895 -0.09007402510251 -1.07996308830883
 6 -7.27097662726273  0.00864479587959 -2.04818902960296
 6 -7.48052555975598 -1.26878858245825 -2.80451297389739
 6 -6.60768031683168 -2.16440601240124 -2.10772693839384
 6 -5.90455887128713 -1.35339890499050 -1.14054018441844
 6 -8.47030248804880 -1.64927505350535 -3.92686958315832
 6 -6.16357002410241 -3.57851343524352 -2.01724527962796
 8 -6.41189558505851 -4.48993669206921 -2.72746901200120
 6 -5.03243180528053 -3.58142619521952 -0.91026334613461
 6 -5.24813229062906 -4.59755519661966  0.03267693949395
 8 -5.70231600320032 -4.40271928002800  1.17477384078408
 8 -4.91536123432343 -5.87641883828383 -0.36632977757776
 6 -5.38668623282328 -7.04827668096810  0.40004183398340
 6  2.28132910611061 -5.09880100030003  0.75431938633863
 6  3.37137167216722 -4.07003716461646  1.01826972677268
 6  4.03511290149015 -3.32075494559456  0.14874850985099
 6  3.50470480938094 -3.13349829112911 -1.40389989448945
 6  5.14003042884288 -2.46207125472547  0.66312011081108
 6  6.56386125742574 -2.78825175037504  0.04362582998300
 6  7.60503582718272 -1.82304165966597  0.62933862436244
 6  9.03571439273927 -1.99042387598760 -0.00493827632763
 6  9.50148653035304 -3.47506814721472  0.06729327162716
 6  9.98519909900990 -0.99559979737974  0.45703821932193
 6  11.17095439783978 -0.87900750765076 -0.37190595679568
 6  12.20590827942794  0.24969959745975  0.12287913551355
 6  13.51528398419842  0.44256912681268 -0.60598536173617
 6  14.41333963296330 -0.78870827342734 -0.37695184608461
 6  14.12743868346835  1.69711588318832 -0.26703595839584
 6  15.36389057945794  2.10701873007301 -1.09823481848185
 6  15.87051963636364  3.50974572737274 -0.54021463466347
 6  17.22173742284228  3.97549539113911 -1.27646158135814
 6  17.06039862956295  4.02115700740074 -2.85432765696570
 6  17.69273867996800  5.37385265056506 -0.71899135803580
 1 -2.70301602440244  1.05735001040104  3.63380384878488
 1 -6.20948892769277  5.82558793919392  0.60242923462346
 1 -8.64810521772177  1.13896419931993 -3.13512899169917
 1 -3.42816388118812 -3.35406072147215  1.78657671847185
 1 -1.82626975087509 -1.20943860546055  2.82157343344334
 1 -3.03605338443844 -2.70139330053005  4.37142068606861
 1 -3.55682647534753 -0.97374727912791  4.78401043084308
 1 -4.53341585328533 -1.98909799069907  3.61634558505851
 1 -2.33946926062606 -3.06484600190019 -0.26882750655065
 1 -1.50704853725373 -1.79474859115912  0.17311543314331
 1 -0.92033746724672 -3.08048934453445  2.34889910861086
 1 -1.64677939953995 -4.50124725592559  1.64842664066407
 1 -1.68831894569457  3.83184270867087  3.80057596729673
 1 -2.73831482158216  4.85276248224822  4.84319057675768
 1 -2.73603659865987  3.27970896839684  5.21282628862886
 1 -5.44741780568057  6.66211040544054  2.35859118051805
 1 -10.21567070057006  2.99793045014501 -3.31508476017602
 1 -10.10590138803880  4.75538938303830 -3.01300159085909
 1 -9.54186398619862  3.64552296629663 -5.13648885118512
 1 -8.10834034343434  4.82728247364737 -4.68700865586559
 1 -8.00457030603060  3.12769212801280 -4.67463738853885
 1 -8.41036862646265 -1.01477202010201 -4.74195519381938
 1 -8.44493547654766 -2.83517692279228 -3.91576421342134
 1 -9.50259033853385 -1.33533035643564 -3.45557246394640
 1 -4.09729708710871 -4.04957978457846 -1.48343163006301
 1  2.63658479147915 -6.04867281028103  1.10479643654366
 1  1.98585932933293 -5.13764074017402 -0.18642209180918
 1  3.65236735903590 -4.29830911271127  2.06730173777378
 1  2.42086707340734 -3.48274389548955 -1.48899144014401
 1  3.68519313261326 -1.99441300060006 -1.76749922042204
 1  4.36136831083108 -3.64745847504751 -1.95228415431543
 1  5.17918795969597 -1.38391481548155  0.14279616311631
 1  5.23623215051505 -2.34568620102010  1.56087096739674
 1  6.69997752445245 -3.75146833893389  0.32229011301130
 1  6.57222738313831 -2.70850845984598 -1.02668326382638
 1  7.48163709500950 -0.65152847794779  0.44351159665967
 1  7.70626272917292 -2.14366094919492  1.71384576987699
 1  8.84318842814281 -2.04313258845885 -1.06706004410441
 1  8.80764528322832 -4.02807157855786 -0.34361815421542
 1  10.46783612441244 -3.56432063416342 -0.50160027352735
 1  9.56818587998800 -3.92624371587159  1.14595503820382
 1  9.27612676327633  0.06125185138514  0.73999936373637
 1  10.25428552605261 -1.14043057695770  1.43331287128713
 1  11.44685982728273 -1.89897992989299 -0.20802517571757
 1  10.92295838253825 -0.72793569846985 -1.29641097469747
 1  11.62444347784779  1.06061049024903 -0.08290784598460
 1  12.32677750105010  0.07841903330333  1.17699597979798
 1  13.06238303900390  0.54304873717372 -1.83817605630563
 1  14.72523186148615 -0.88855706840684  0.61889756975698
 1  13.89115468646865 -1.77637665396540 -0.84592091359136
 1  15.31322231063106 -0.61858505670567 -0.99928682118212
 1  13.38556675087509  2.50272489158916 -0.38802058975898
 1  14.70113681398140  1.64563485268527  0.63768098199820
 1  16.28618027382738  1.42876148884888 -1.02234872557256
 1  15.11171675507551  2.18676258905891 -2.19513089278928
 1  15.19019042364237  4.30081545954595 -0.85441743984398
 1  16.10342311241124  3.56814345574557  0.47433733413341
 1  17.95100878227823  3.26962845404540 -0.99884896449645
 1  16.35150587098710  4.77129365826583 -3.15408776857686
 1  18.01140706420642  4.19395890919092 -3.49544414951495
 1  16.81030123032303  3.01641271127113 -3.15716375097510
 1  17.91183723092309  5.12563378087809  0.24149581378138
 1  18.47502502480248  5.89306345854585 -1.22029894429443
 1  16.90029158005800  6.03724322742274 -0.70419448074808
 1 -5.14482978437844 -7.85412484558456 -0.28081161886189
 1 -6.48540297059706 -6.84046113271327  0.80627413491349
 1 -4.49700786938694 -7.19181075667567  1.35185964256426
 8 -7.84787237883788  6.86552305310531 -0.52829061306131
 1 -9.06108440554056  6.21715736063606 -2.21975765856586

