%nproc=4
%Mem=4GB
# td=(NStates=1) iop(3/107=0140000000,3/108=0140000000) iop(3/107=0140000000,3/108=0140000000) CAM-B3LYP/6-31G(d,p) 

TD

0 1
12 -5.61176268286829  1.24227910221022  0.14551315651565
 6 -5.06170655785579 -2.14519298259826 -0.41956882368237
 6 -3.49753854295430  1.18901918671867  2.70741611491149
 6 -6.23191198689869  4.54538780298030  0.76629683848385
 6 -7.98558432553255  1.14616546724672 -2.39178685218522
 7 -4.37804205750575 -0.25130332213221  1.00160149894990
 6 -4.30661418891889 -1.53062676427643  0.60565291489149
 6 -3.24757788228823 -2.30475377817782  1.41507587128713
 6 -2.97406057705771 -1.34293718461846  2.55669222532253
 6 -3.61890931833183 -0.07019964766477  2.12046663186319
 6 -3.51512455185519 -1.80223366476648  3.91946464586459
 6 -1.97169236243624 -2.60728813811381  0.62917822332233
 6 -1.00128177167717 -3.54127170777078  1.43107669566957
 6  0.25521062156216 -3.84674851555156  0.59942813751375
 8  0.53149321362136 -3.44908222182218 -0.52706894109411
 8  1.09905675137514 -4.63307292459246  1.37119172647265
 7 -4.96752756905691  2.63017239413941  1.40230046174617
 6 -4.13538562836284  2.35039246094609  2.47914851815181
 6 -3.87467697139714  3.74524302650265  3.23376393259326
 6 -4.65047560026003  4.60291181948195  2.53184245554555
 6 -5.31213731793179  3.96083417861786  1.50302639493949
 6 -2.95659102220222  3.83005038083808  4.35393958335834
 6 -4.60118664926493  6.01491891239124  3.09472897769777
 8 -3.97166721472147  6.46860474847485  4.04203810371037
 7 -6.88753255315532  2.62773266906691 -0.65137679397940
 6 -7.00431314611461  3.95270488768877 -0.28437012571257
 6 -7.91214640104010  4.60597732253225 -1.25841995149515
 6 -8.34216366966697  3.59181611151115 -2.16987593199320
 6 -7.73264215471547  2.39651566036604 -1.81625757225723
 6 -8.31489448034804  5.90594050345035 -1.10704021282128
 6 -9.47399176247625  3.75552595079508 -3.24032866566657
 6 -8.84715616931693  4.27644579077908 -4.54605100910091
 7 -6.32905132413241 -0.14045906360636 -1.12633772577258
 6 -7.29811934153415 -0.00934700330033 -2.04136834753475
 6 -7.52535004220422 -1.34415611921192 -2.72324484708471
 6 -6.61860140894089 -2.20407997979798 -2.07769393509351
 6 -5.98247666306631 -1.46020958605861 -1.17897402780278
 6 -8.39021447924792 -1.67139726572657 -3.91330822702270
 6 -6.13494716181618 -3.62954853875388 -2.09743329842984
 8 -6.51719611511151 -4.57086478487849 -2.66902316741674
 6 -4.87742630473047 -3.57415546814681 -0.94215653545355
 6 -5.26866434383438 -4.63470891199120  0.12250592239224
 8 -5.77544331593159 -4.29356836493649  1.13149951335134
 8 -4.81914161236124 -5.78525972237224 -0.27761090569057
 6 -5.17505506970697 -6.91707356065607  0.60911274107411
 6  2.35961693489349 -4.98336945714571  0.68527248164816
 6  3.41232576757676 -3.97432759365937  1.02634053385339
 6  4.04352374257426 -3.15316818691869  0.21440507550755
 6  3.67701204010401 -3.10351529282928 -1.24969447394739
 6  5.22582900870087 -2.32201724932493  0.65091889068907
 6  6.55715058635864 -2.63430635583558  0.12225369276928
 6  7.65354067766777 -1.67977733323332  0.54831052155216
 6  8.96366718801880 -1.95218005160516 -0.02028981148115
 6  9.52433881558156 -3.38032867326733  0.20350689298930
 6  9.98885946504650 -0.84408464586459  0.54826734223422
 6  11.32120942334233 -0.96028563546355 -0.32189095529553
 6  12.31616930553055  0.25737036453645  0.19604645224522
 6  13.63950640644064  0.34335920582058 -0.50726548974898
 6  14.57690598959896 -0.77473687628763 -0.28967311821182
 6  14.32707864746475  1.62229840144014 -0.12920217501750
 6  15.58426261666167  1.96963499169917 -0.97258225322532
 6  16.06824940934093  3.36706145894589 -0.70398101130113
 6  17.28263351245124  3.77327516911691 -1.42823675887589
 6  16.89919250895089  3.94731962366237 -2.94875709990999
 6  17.67257666376637  5.21700696599660 -0.95425488438844
 1 -3.00351607440744  1.15226950235023  3.69168963736374
 1 -6.39386736553655  5.57472285268527  0.89518851055106
 1 -8.74584499169917  1.22334263716372 -3.10363584238424
 1 -3.54093515831583 -3.27770308570857  1.96403446424642
 1 -1.91764888878888 -1.07528519011901  2.57877915401540
 1 -3.00835061416142 -2.68090125132513  4.53111665566557
 1 -3.59459025172517 -1.06850675507551  4.75452748254826
 1 -4.59077158885889 -1.84156323722372  3.62290624112411
 1 -2.19829514321432 -3.17401691899190 -0.29592021582158
 1 -1.45792362476248 -1.76861597789779  0.28653677527753
 1 -0.54239967346735 -2.80313160876088  2.31915613431343
 1 -1.55720044164416 -4.42829996119612  1.83864566256626
 1 -1.91536164996500  3.78468799319932  3.98845475517552
 1 -2.98008899899990  4.70245745174517  4.83556981468147
 1 -3.19241223622362  3.09976097359736  5.14561956795680
 1 -5.29980304420442  6.66989118351835  2.67460278167817
 1 -9.92936206970697  2.83761441854185 -3.34149740144014
 1 -10.07909870777078  4.64105794989499 -2.73022331303130
 1 -9.75193499329933  4.26917533153315 -5.11866706900690
 1 -8.59462897229723  5.45408515391539 -4.52916287128713
 1 -8.03687353635364  3.61936129492949 -4.98769869466947
 1 -7.85775336493649 -1.03870441334133 -4.86785778407841
 1 -8.47211819481948 -2.80854425952595 -4.30350298729873
 1 -9.53050312981298 -1.23596041944194 -3.69092599929993
 1 -3.94317167456746 -3.81449627622762 -1.46707999489949
 1  2.54811594459446 -5.85001294429443  1.24615057195720
 1  2.07256800020002 -5.37200417651765 -0.41243469306931
 1  3.52474459675968 -4.08398768056806  2.14937994559456
 1  2.76550153685369 -3.47182280338034 -1.63087562856286
 1  3.89353396669667 -2.04080764006401 -1.56962943344334
 1  4.14827700170017 -3.86338006720672 -1.90168909480948
 1  4.96963700460046 -1.15387181118112  0.59507139063906
 1  5.13132165946595 -2.34242587498750  1.86338121842184
 1  6.67424495119512 -3.72071526362636  0.55362324632463
 1  6.42344250465047 -2.96521413041304 -1.04106470197020
 1  7.19025795709571 -0.71094441954195  0.56011325682568
 1  7.68734083698370 -2.01228781188119  1.61955634093409
 1  9.08807291659166 -1.61202947814781 -1.12251558965897
 1  8.93062758145815 -4.14126289768977 -0.36455024742474
 1  10.45742508330833 -3.41104530663066 -0.24391450495050
 1  9.47124618601860 -3.86541763326333  1.13409385208521
 1  9.59730888148815  0.17666339253925  0.07940330413041
 1  10.15597569506951 -0.79676621052105  1.56655619561956
 1  11.91732687398740 -1.90424045594559 -0.22854722792279
 1  11.30245633233323 -0.67211011591159 -1.42903423702370
 1  11.87403843734374  1.21910633983398  0.02913335813581
 1  12.62268709200920  0.16849804120412  1.12618089828983
 1  13.13575037573757  0.47928236053605 -1.45413765246525
 1  14.78233757205721 -0.97440565326533  0.63399907990799
 1  14.06633220422042 -1.74719373567357 -0.51014733623362
 1  15.43475446384639 -0.73484668286829 -1.06651354385439
 1  13.62993118731873  2.40256487558756 -0.43815560326032
 1  14.80559726002600  1.62597288648865  0.94282149604961
 1  16.43001465726573  1.24567318001800 -1.02038852955295
 1  15.20661624502450  1.68922283508351 -2.12602398209821
 1  15.42037344194419  4.03585896389639 -0.97972997109711
 1  16.23377614771477  3.29942658405841  0.37474737513751
 1  18.06611029242924  2.95929742094209 -1.20717979757976
 1  16.10888160856085  4.85416194509451 -2.90921328112811
 1  17.74186010951095  4.53222273557356 -3.68447305240524
 1  16.57070727092709  2.95068613861386 -3.48005604020402
 1  18.01816786398640  5.40644186168617  0.16558822302230
 1  18.49985750805081  5.52318647084708 -1.57820473487349
 1  16.69220077097710  6.00352985608561 -1.15141920322032
 1 -4.81555685708571 -7.76663609670967  0.26001246354635
 1 -6.34352878317832 -6.97498458505851  0.64360786828683
 1 -4.53802197079708 -6.66180775637564  1.43218767536754
 8 -7.91395898749875  6.75753225402540 -0.20201798579858
 1 -8.70879917701770  6.25023066796680 -2.15578126092609

