%nproc=4
%Mem=4GB
# td=(NStates=1) iop(3/107=0140000000,3/108=0140000000) iop(3/107=0140000000,3/108=0140000000) CAM-B3LYP/6-31G(d,p) 

TD

0 1
12 -5.77062856945695  1.15663053735374  0.21387999319932
 6 -5.07233762096210 -2.19250771407141 -0.42492935973597
 6 -3.45609439853985  1.13531381618162  2.81352672597260
 6 -6.20669946564656  4.62905616981698  0.67843805260526
 6 -8.13424919201920  1.12792364306431 -2.33308098159816
 7 -4.46387064036404 -0.29852804460446  1.05092643144314
 6 -4.32554608210821 -1.59634333593359  0.66691904150415
 6 -3.27606073057306 -2.35678898169817  1.43156752045205
 6 -2.92242541354135 -1.32240513141314  2.62681923802380
 6 -3.62567999539954 -0.01911453915392  2.22736732193219
 6 -3.70656369576958 -1.79147258865887  3.88720141954195
 6 -2.00764595779578 -2.60880829012901  0.66256156165617
 6 -1.00153179667967 -3.54948252885289  1.42697628562856
 6  0.24154925542554 -3.87439127982798  0.61832002670267
 8  0.40627069136914 -3.46051336493649 -0.50482671687169
 8  1.10480732643264 -4.58637825512551  1.32234684198420
 7 -5.07492830913091  2.55136451335134  1.53094332603260
 6 -4.08687077687769  2.42918033973397  2.49857046034603
 6 -3.85767527122712  3.61746024822482  3.24293484968497
 6 -4.58211876457646  4.59660118841884  2.66650592189219
 6 -5.29965606980698  3.91708980418042  1.54076016831683
 6 -2.96022138523852  3.75610298609861  4.33374756415642
 6 -4.57094362496250  6.00991841234123  2.87579708450845
 8 -3.90218026602660  6.59099698769877  3.74618851875188
 7 -6.86010981088109  2.64170406620662 -0.68362001830183
 6 -6.98544125892589  3.91915153235324 -0.41561325002500
 6 -7.74840002640264  4.63235996079608 -1.30847495699570
 6 -8.44904435773577  3.69154608450845 -2.01075001940194
 6 -7.79196808730873  2.37315332413241 -1.67481342784278
 6 -8.22062505340534  6.02009191859186 -1.25800530933093
 6 -9.56334069736974  3.92793319151915 -3.08443307610761
 6 -8.65092654635464  4.24649279547955 -4.25546195019502
 7 -6.42271069006901 -0.20900591829183 -1.16397148914891
 6 -7.43136266586659 -0.12781885048505 -2.07981219191919
 6 -7.56501400860086 -1.48232993659366 -2.74727725032503
 6 -6.67180672947295 -2.25613518531853 -2.15845201090109
 6 -5.98217663306331 -1.45970953605361 -1.21661779217922
 6 -8.61843730153015 -1.72207233323332 -3.92181907810781
 6 -6.09711337843784 -3.62551813571357 -2.08257181228123
 8 -6.43623801930193 -4.57864556295630 -2.74383064816482
 6 -5.05849441154115 -3.58070612321232 -0.93448576837684
 6 -5.23693117051705 -4.61640708180818  0.17343101490149
 8 -5.59867563916392 -4.36355536363636  1.33439980338034
 8 -5.16708640684068 -5.88304950135013 -0.31814495909591
 6 -5.44164172837284 -6.88248010131013  0.47870970077008
 6  2.29633060626063 -5.02891401160116  0.61112506690669
 6  3.40803533853385 -4.17840800170017  1.00165806560656
 6  4.04343373357336 -3.25507837793779  0.24987862286229
 6  3.76903124202420 -3.01710665196520 -1.20166967146715
 6  5.23853027882788 -2.44051909950995  0.67693149194919
 6  6.60377524882488 -2.80025295049505  0.05116658405841
 6  7.75284060766077 -1.79323867936794  0.58118380888089
 6  9.14995581688169 -1.93597843144314 -0.11274905740574
 6  9.59426580828083 -3.37891853225323  0.06620316261626
 6  10.06884746384639 -0.83765400280028  0.40899341484148
 6  11.34340164256426 -0.79165877277728 -0.39391815801580
 6  12.37833552215221  0.35744037153715  0.10881772937294
 6  13.68313076887689  0.60947581748175 -0.56953171637164
 6  14.45216351535154 -0.77212661526153 -0.27079123002300
 6  14.37007294689469  1.79696586818682 -0.08316757155716
 6  15.48786297669767  2.10849887808781 -1.08315331033103
 6  16.18392097649765  3.50809556235624 -0.64866547974798
 6  17.41705695479548  3.82447028862886 -1.40853478867887
 6  17.13116570627063  4.03090798249825 -2.94731695589559
 6  18.04810421652165  5.09719498479848 -0.73909336823682
 1 -2.91854757755776  1.25415969136914  3.78625909430943
 1 -6.46680465926593  5.64072945334533  0.79301829352935
 1 -8.92511291849185  1.01371167406741 -3.08021350015001
 1 -3.59802086688669 -3.42013732913291  1.98906696749675
 1 -1.84013113701370 -1.16589425102510  2.87714899099910
 1 -3.32760253935394 -2.90871403260326  4.32062560656066
 1 -3.67167796049605 -0.97951785618562  4.70728275807581
 1 -4.77765027672767 -1.92606168706871  3.57244119461946
 1 -2.23945925962596 -3.25989550685068 -0.27569819361936
 1 -1.57535536793679 -1.75699481578158 -0.03213509190919
 1 -0.55589102260226 -3.19568086368637  2.46187040574057
 1 -1.54860958255826 -4.51326845804580  1.89682148014801
 1 -1.86374648844884  3.66548607300730  3.97408331803180
 1 -2.97776876697670  4.77090429642964  4.69336559425943
 1 -3.25251824682468  3.19443044054406  5.12040704670467
 1 -5.14777784168417  6.71070526492649  2.30429575097510
 1 -10.03800293379338  3.07156781388139 -3.04406765846585
 1 -10.28385918381838  4.97712155625563 -2.96323661436144
 1 -9.30617041684168  4.27768618261826 -5.16339154145415
 1 -7.97591710111011  5.09199894529453 -4.21220117511751
 1 -7.90057990699070  3.50981033983398 -4.65602552735273
 1 -8.53413100270027 -1.05056559945995 -4.83936493479348
 1 -8.60450143314331 -2.84708811391139 -3.99704234123412
 1 -9.80317039653965 -1.69517634103410 -3.78343525022502
 1 -4.04322167956796 -3.91465629222922 -1.30384367126713
 1  2.38698983198320 -6.06406434943494  0.89296525342534
 1  2.22544328772877 -4.70585756185618 -0.37920136973697
 1  3.82461458375838 -4.26097537933793  2.05192019961996
 1  2.67985297199720 -2.87577319841984 -1.45436797779778
 1  4.04543915721572 -2.00156371567157 -1.59140161066107
 1  4.09161133513351 -3.78068179737974 -1.79055798169817
 1  4.87857789868987 -1.45931235523552  0.60273215671567
 1  5.23439196649665 -2.50835246764676  1.83601848214821
 1  6.79515704240424 -3.95818901100110  0.32917080108011
 1  6.61811197159716 -2.79026663566357 -1.13989458495850
 1  7.39778871017102 -0.63838716381638  0.48833607910791
 1  7.70797290019002 -1.93840042314231  1.70446483178318
 1  8.97655176447645 -1.81697997319732 -1.19902324042404
 1  8.95390990969097 -4.30395916731673 -0.31065485788579
 1  10.39399874067407 -3.48064226632663 -0.51381149464946
 1  9.82252131353135 -3.63140423192319  1.01734217691769
 1  9.66023517411741  0.28967469366937  0.39579494329433
 1  10.32027212471247 -1.18722525642564  1.43176271627163
 1  12.01734687598760 -1.73889392129213 -0.45085945914592
 1  11.06916300300030 -0.69991289618962 -1.45842717631763
 1  11.74415544904491  1.17678210741074  0.09775021982198
 1  12.51937676097610  0.14649584098410  1.24151243144314
 1  13.59316611731173  0.60986541884188 -1.65372761146115
 1  14.63511284958496 -0.76940515321532  0.88125380538054
 1  13.83057862886288 -1.69151816811681 -0.47119344084408
 1  15.42426341474147 -0.59902310051005 -0.68243513601360
 1  13.60216841104110  2.67945256435644 -0.14886667436744
 1  14.64016071637164  1.57922821202120  1.03534074797480
 1  16.04027568336834  1.25767438013801 -0.96877336803680
 1  15.22006759015902  2.18734264706471 -2.04928630833083
 1  15.51614301890189  4.40453583158316 -0.65949794789479
 1  16.22631540164016  3.39283592499250  0.48598849924993
 1  18.05334901630163  2.94311580278028 -1.47825690529053
 1  16.28087880828082  4.87276380528053 -2.86077843764376
 1  18.00979690319032  4.38037755105511 -3.32472707780778
 1  16.64618481868187  3.21121219121912 -3.48250628522852
 1  18.49875592279228  4.92918413591359  0.26551821602160
 1  18.96448397069707  5.43594774697470 -1.35695260966097
 1  17.26311786268627  6.02953245634563 -0.89420348164816
 1 -5.25883118451845 -7.78731816491649  0.06697315961596
 1 -6.42456688698870 -6.68515560216022  0.66139964746475
 1 -4.89158732733273 -6.88178975457546  1.41731618821882
 8 -7.75918350995100  6.91976847764777 -0.50139792379238
 1 -8.89448774587459  6.23440908580858 -1.93084876767677

