%nproc=4
%Mem=4GB
# td=(NStates=1) iop(3/107=0140000000,3/108=0140000000) iop(3/107=0140000000,3/108=0140000000) CAM-B3LYP/6-31G(d,p) 

TD

0 1
12 -5.65413692029203  1.19002387668767  0.19506811201120
 6 -5.03570395759576 -2.11436990029003 -0.33228009480948
 6 -3.48216700580058  1.22185247004700  2.71716709000900
 6 -6.31089988568857  4.64852811701170  0.67978818761876
 6 -8.05317108420842  1.09834068476848 -2.25783345684568
 7 -4.33219747304731 -0.30659885168517  0.98058939773977
 6 -4.18947247474748 -1.57233093469347  0.61945429502950
 6 -3.18593171767177 -2.30556385918592  1.49393375707571
 6 -2.81404457545755 -1.26658954985499  2.53613016911691
 6 -3.53228065546555 -0.02652528022802  2.07522210741074
 6 -3.34026706610661 -1.65957939933993  4.01436413581358
 6 -1.89914510771077 -2.59346675597560  0.59965527102710
 6 -0.88961060456046 -3.37506508710871  1.43076666466647
 6  0.27416251675168 -3.84008784948495  0.64987318201820
 8  0.53171323562356 -3.37039435303530 -0.42551878607861
 8  1.05879272497250 -4.68059767706771  1.17669227652765
 7 -4.95221603790379  2.63912328922892  1.52898313001300
 6 -4.04123621342134  2.44477189888989  2.41212181548155
 6 -3.74113361706171  3.74986348854886  3.12696325252525
 6 -4.62426297899790  4.67480900920092  2.60720999229923
 6 -5.35576168036804  3.98966706190619  1.47793388568857
 6 -2.96612197529753  3.91705908170817  4.39765395479548
 6 -4.82617914851485  6.14509192969297  2.92705221002100
 8 -4.15217526552655  6.66490437843784  3.78990289018902
 7 -6.92675647554755  2.67703759955996 -0.71827348364836
 6 -7.04698741354135  3.95524514171417 -0.31067275597560
 6 -8.06414160056006  4.58265499029903 -1.19491360086009
 6 -8.58042749604961  3.59941687158716 -2.04038298269827
 6 -7.91185007550755  2.35832184098410 -1.68640458695870
 6 -8.44791778267827  6.01600150955096 -1.18112762156216
 6 -9.55258962226223  3.67929832803280 -3.13489812261226
 6 -8.81272272597260  4.06998514471447 -4.40649705370537
 7 -6.47881630063006 -0.22077709540954 -1.05320041204120
 6 -7.39544907450745 -0.06153222182218 -2.04900911161116
 6 -7.49273678087809 -1.41006270987099 -2.66487901050105
 6 -6.62047159595960 -2.22565213701370 -2.06470263596360
 6 -5.98806722212221 -1.40262382748275 -0.99340547094709
 6 -8.46297175497550 -1.74076420242024 -3.79103599979998
 6 -6.07054072117212 -3.45142072597260 -2.10138369346935
 8 -6.43455785128513 -4.46179387778778 -2.60763702880288
 6 -4.85800436253625 -3.45245329792979 -0.93465578537854
 6 -5.23106058345835 -4.58326376747675  0.16758042984298
 8 -5.76544231583158 -4.46224523262326  1.24219058245825
 8 -4.99631933013301 -5.83258445484548 -0.34499764436444
 6 -5.23250081428143 -7.01128298159816  0.41122295209521
 6  2.25741671487149 -5.08453957415742  0.48282223662366
 6  3.42755729072907 -4.21685184608461  0.82079997979798
 6  4.10987037723772 -3.40981385148515 -0.01671803680368
 6  3.76371070997100 -3.24178912021202 -1.57227673217322
 6  5.10828725452545 -2.44221926952695  0.60421422022202
 6  6.56295116641664 -2.76194912011201  0.08188965636564
 6  7.65270059365937 -1.84990434593459  0.45732142264226
 6  9.04260508180818 -1.98395322892289 -0.02519030153015
 6  9.62531891359136 -3.33540418081808  0.37479402170217
 6  9.95458603770377 -0.84259449684969  0.46120863636364
 6  11.30031733413341 -0.87127673457346 -0.24710347654765
 6  12.30766845544554  0.27106173367337  0.15439228682868
 6  13.60372282808281  0.46425129502950 -0.62094685788579
 6  14.48322662166217 -0.71490089268927 -0.29437358825883
 6  14.16909284888489  1.66999317091709 -0.18976823162316
 6  15.47222141254125  2.05910393859386 -1.05807080208021
 6  16.06802938733873  3.45833058585859 -0.63573418661866
 6  17.44804005310531  3.81125896749675 -1.21515545074507
 6  17.50671326102610  3.81320621232123 -2.80983320752075
 6  17.93677308340834  5.15788105340534 -0.77612707160716
 1 -2.63589931273127  1.32135641104110  3.62509297769777
 1 -6.56219419821982  5.72087746814681  0.69695868756876
 1 -8.92907331453145  0.98231853475348 -3.06242172097210
 1 -3.76729779457946 -3.14919023442344  1.88043610441044
 1 -1.78983610751075 -1.02721038263826  2.72534381048105
 1 -2.72500227932793 -2.48652181338134  4.05640918491849
 1 -2.79662045474547 -0.99085899029903  4.81027305710571
 1 -4.37521003270327 -1.83741282218222  4.03324727522752
 1 -2.22398771247125 -2.97266678397840 -0.34174479827983
 1 -1.45002283468347 -1.59499861616162  0.07347546914691
 1 -0.50935636913691 -2.99681097669767  2.19344356305631
 1 -1.31437615921592 -4.28951608280828  1.98753055105511
 1 -1.88876899069907  3.33042256665667  4.54798070777078
 1 -2.72061305140514  4.94539174517452  4.74316057375738
 1 -3.50966396139614  3.39227022452245  5.35054006000600
 1 -5.73553661756176  6.74710890529053  2.65488080948095
 1 -10.36427556105611  2.73351400850085 -2.97630088178818
 1 -10.31006180408041  4.57184102820282 -2.67617790849085
 1 -9.46362616241624  4.14526294029403 -5.35460066236624
 1 -8.38016752615261  4.87784753015302 -4.24228418341834
 1 -8.03848369736974  3.32958231703170 -4.71190111491149
 1 -8.44722231183118 -1.13278382128213 -4.68627962626263
 1 -8.26247723072307 -2.76997040214021 -4.04163680068007
 1 -9.60079015851585 -1.62178900230023 -3.35678258495850
 1 -3.98631598899890 -3.54696952355236 -1.50700398729873
 1  2.60522165516552 -5.92695063806381  1.07630358725873
 1  1.89970071347135 -5.40493746984698 -0.59878332793279
 1  3.65149727202720 -4.33866314811481  1.78903391099110
 1  2.82026701340134 -3.44057967906791 -1.82709525052505
 1  3.97013162646265 -2.41738529782978 -1.92623509400940
 1  4.62273444744474 -3.82892662186219 -1.97597652355235
 1  4.73496353725373 -1.60030645464546  0.08617050055006
 1  5.12427095439544 -2.47122875527553  1.52177705800580
 1  6.85014254095410 -3.75796898899890  0.45922380638064
 1  6.50850101050105 -2.77951556055606 -1.12108270377038
 1  7.16465539683968 -0.89375270037004  0.09962720822082
 1  7.38602070497050 -1.78913549664966  1.59178356365637
 1  8.81928603790379 -2.07558583378338 -1.16582992109211
 1  9.11540605930593 -4.30454922632263 -0.24741853425343
 1  10.89106844764477 -3.40807500960096  0.03526341284128
 1  9.63972303370337 -3.51681277277728  1.44732517521752
 1  9.30435958655866 -0.10401467526753  0.31447681148115
 1  10.05834593209321 -1.01696823072307  1.53410295029503
 1  11.84604974627463 -1.76397642954295 -0.06884125732573
 1  11.20210629732973 -0.93792669756976 -1.47637897149715
 1  11.53457449094910  1.11607603680368 -0.06248580378038
 1  12.52883770707071  0.24703589498950  1.16547482768277
 1  13.35610241094109  0.57891232353235 -1.56771901060106
 1  14.81283062136214 -0.99538775147515  0.55860154015401
 1  14.05381095209521 -1.62362137843784 -0.43657997949795
 1  15.58303929232923 -0.55127832603260 -0.77542443494349
 1  13.56286448064806  2.37477209630963 -0.21441322902290
 1  14.65648234853485  1.70633092229223  0.78954616851685
 1  16.14016567236724  1.18243685638564 -0.83425991669167
 1  15.03438902230223  2.17404131693169 -2.10083146284628
 1  15.20084148874887  4.11904728272827 -0.76346834493449
 1  16.30570334043405  3.47847448884888  0.48852875327533
 1  18.29203288468847  3.16073756495650 -0.66994607420742
 1  16.89768048844884  4.62536906580658 -3.17392975277528
 1  18.55222114561456  3.96120563386339 -3.13136774187419
 1  17.29062926312631  2.74801587158716 -3.13698173277328
 1  17.76580262746274  5.23114433193319  0.42371403560356
 1  19.01715923822382  5.16507065926593 -1.10037695209521
 1  17.05996754765476  5.93630313341334 -1.04583864516452
 1 -4.93859916131613 -7.78421785488549 -0.28889242694269
 1 -6.30776520682068 -7.23984107070707  0.44581808930893
 1 -4.66797496609661 -6.65918749434944  1.52047650425042
 8 -7.92806039763976  6.83416991779178 -0.38415619961996
 1 -9.27407570467047  6.29930557545755 -1.79647533033303

