%nproc=4
%Mem=2GB
# td=(NStates=1) iop(3/107=0140000000,3/108=0140000000) iop(3/107=0140000000,3/108=0140000000) CAM-B3LYP/6-31G(d,p) 

TD

0 1
12 -6.73492606470647  0.62289143324332  0.08018563806381
 6 -4.46052315881588 -2.19862828462846  0.64108438543854
 6 -4.37069888528853  2.78631026412641  1.00821370297030
 6 -9.06768947364736  3.21887591169117 -0.34720422212221
 6 -9.29332743034304 -1.83076610621062 -0.86737679637964
 7 -4.76710178207821  0.39916931463146  0.54863389548955
 6 -3.99776704230423 -0.71836154295430  0.71357191259126
 6 -2.51238465706571 -0.45989774897490  1.00358242054205
 6 -2.49716968276828  0.99211936073607  1.36818898139814
 6 -3.87708397129713  1.43123320852085  1.01601637633763
 6 -2.28097438313831  1.28560035593559  2.96405096789679
 6 -1.55037378577858 -0.75562812621262 -0.03936260996100
 6 -0.08262638093809 -0.87733944054405  0.52528160166017
 6  0.83850492969297 -1.17914515141514 -0.61057923172317
 8  0.70373044114411 -1.12641525402540 -1.94206519671967
 8  1.88225851245125 -1.93061335993599 -0.09822474497450
 7 -6.70403214541454  2.62278264826483  0.41048479637964
 6 -5.66122668356836  3.30778942214221  0.85369166536654
 6 -5.87622183738374  4.84305399019902  0.73727859645965
 6 -7.20514122752275  4.79800589108911  0.37446402970297
 6 -7.78928063196320  3.57372618101810  0.10644547594759
 6 -5.04246916721672  5.90058748924892  1.10139780778078
 6 -8.17842940424042  6.04027094719472  0.35154467816782
 8 -7.86050996719672  7.21699331593159  0.74515237203720
 7 -8.72553610711071  0.70589144834483 -0.35653830293029
 6 -9.38974264666467  1.86608134343434 -0.58152920522052
 6 -10.84902153245325  1.48057792889289 -1.02291807300730
 6 -10.94914927242724  0.13025392979298 -0.99748060356036
 6 -9.64412607590759 -0.50232839603960 -0.73957603430343
 6 -11.87324409970997  2.50917711081108 -1.11522617341734
 6 -12.12033515401540 -0.46331989428943 -1.56323445714571
 6 -11.99106596869687 -0.86144831003100 -3.06968976367637
 7 -6.92753923682368 -1.48036059735974 -0.05764840934093
 6 -7.97444010561056 -2.27989798649865 -0.37329052705271
 6 -7.49520710581058 -3.59062638503850 -0.47537854795480
 6 -6.18822444364436 -3.56270543144314 -0.04773303390339
 6 -5.80997728642864 -2.24888370287029  0.12192837713771
 6 -8.39767829132913 -4.75382276007601 -0.71391420732073
 6 -4.99909611411141 -4.41249704780478  0.00459848554855
 8 -4.87408915761576 -5.60717125542554 -0.13737323072307
 6 -3.90599432483248 -3.46981754095410  0.51508615581558
 6 -3.33390690159016 -3.92770894639464  1.85103481648165
 8 -3.96997223732373 -4.02375911071107  2.88074674447445
 8 -2.08263993889389 -3.62450875617562  1.95515545474547
 6 -1.34560308240824 -4.01449653975398  3.19449387458746
 6  2.99487137993799 -2.27898307520752 -0.88822006610661
 6  4.22712648004801 -1.30376737783778 -0.84743027532753
 6  5.16700745614561 -1.10770764216422 -1.81518772037204
 6  5.21184516831683 -1.66401953665367 -3.26585356755676
 6  6.12265609020902  0.03665601270127 -1.60166672517252
 6  7.41654034803480 -0.70983676577658 -1.01886862416242
 6  8.47924048434843  0.50755639023902 -0.77629611011101
 6  9.75463855325533 -0.30578749904990 -0.07466577227723
 6  9.41909942624262 -0.74963377807781  1.45255962476248
 6  11.00053238323832  0.62647750195019  0.00254509290929
 6  12.32295756625663 -0.07374606740674  0.21167947914791
 6  13.46388793139314  0.97313458815882  0.34238713711371
 6  14.81917825302530  0.27449072717272  0.38794345644564
 6  15.03343833193319 -0.52739502000200  1.34395431943194
 6  16.05201482988299  1.06736163816382  0.15617882318232
 6  17.28635811391139  0.68683390779078 -0.16107298119812
 6  18.52047159455946  1.77600479167917 -0.40628077487749
 6  19.83419562066207  1.04319281408141 -0.40490057375738
 6  20.21182098339834  0.45604103440344 -1.76947273847385
 6  20.90988815771577  2.13108452645265 -0.17964306020602
 1 -3.43634427272727  3.39234048504850  1.40776017771777
 1 -9.59786376887689  4.20414950005001 -0.11174480838084
 1 -9.85099759135914 -2.85621602090209 -1.30143296919692
 1 -2.06832934973497 -1.06414403220322  1.81595164346435
 1 -1.93813315191519  1.50935141134113  0.90968742214221
 1 -1.49436081978198  0.53599191359136  3.39193990509051
 1 -2.33250142404240  2.59332790919092  3.24804092189219
 1 -3.49661199369937  1.14790267556756  3.39052492159216
 1 -1.69678869916992 -1.68562983598360 -0.64086187298730
 1 -1.58310347934793  0.14099262636264 -0.59582937373737
 1  0.42395039333933  0.05802436913691  1.09196506170617
 1 -0.00762448224822 -1.91115744954495  1.16267649974998
 1 -3.87762229262926  4.75836366426643  1.30303526122612
 1 -5.17182746334634  7.22392506840684  0.07899480558056
 1 -5.70662169036904  6.24869383038304  2.57458523082308
 1 -9.33480649474948  6.26768187738774  0.22102572677268
 1 -12.48903845744574 -1.58716958445845 -0.94353878107811
 1 -13.05393160816082  0.08073447324732 -1.49563720012001
 1 -12.75206302940294 -1.62560467586759 -3.47901501860186
 1 -11.77992495629563  0.41283870537054 -3.59642181168117
 1 -10.92944976937694 -1.40745406240624 -3.15100170757076
 1 -9.08448763206321 -4.75724227982798 -1.57011923992399
 1 -8.06636185078508 -5.70134014661466 -1.04045369726973
 1 -9.05805308530853 -4.98876083728373  0.38215282478248
 1 -3.25325490689069 -3.42759648454846 -0.35646395319532
 1  3.31648326372637 -3.25821309510951 -0.69039475657566
 1  2.66735102390239 -2.40659657465747 -1.83943417871787
 1  3.93248057575758 -0.26013876227623 -0.02168856725673
 1  4.19255231223122 -1.59136260876088 -3.97435755075507
 1  6.01864544294429 -1.15726440184018 -3.62401362526253
 1  5.28064189158916 -3.07694030833083 -3.08663284708471
 1  6.27837825972597  0.52281761916192 -2.98472108930893
 1  5.74345945534553  1.03704925272527 -0.94126839023902
 1  7.07771895079508 -1.07149534663466  0.15863758535854
 1  7.77052245064506 -1.67733652395239 -1.58139761566157
 1  8.75986811821182  0.84443503830383 -1.97029981528153
 1  8.25956445454545  1.49770495869587 -0.07815210681068
 1  10.02754520162016 -1.60088753245325 -0.82952010961096
 1  8.68328057235724 -1.27976679237924  1.32220058085809
 1  10.05585165456545 -1.48876275747575  1.71162305370537
 1  9.36694990659066  0.09068784638464  2.22189349444945
 1  11.09988362616262  1.16041880178018 -1.00366753835384
 1  10.68681842844284  1.47664654025403  0.58526240654065
 1  12.30586812901290 -0.63205564506451  1.30681436473647
 1  12.41770392439244 -0.74344256485649 -0.58838183568357
 1  13.23514838483849  1.73787333233323 -0.35383428802880
 1  13.47468951375138  1.37063131443144  1.26577236663666
 1  14.79670109590959 -0.33818133413341 -0.26459465066507
 1  15.28047794769477 -0.03161276577658  2.24386715971597
 1  14.45940321382138 -1.26238391029103  1.30948844694469
 1  15.90156718981898 -1.26481006410641  1.14864134183418
 1  15.96708784368437  1.83569356275628 -0.70431040574057
 1  16.42625665826582  1.80144968046805  1.01021934513451
 1  17.60106142124212  0.06652982358236  0.35960614731473
 1  16.92801032523252  0.25521369056906 -0.76410778817882
 1  18.59436444354436  2.44829137693769 -1.30475346364636
 1  18.68600859695970  2.43087699459946  0.18157482798280
 1  19.67120968216822  0.27489033523352  0.70817416821682
 1  19.61747006500650  0.92862791239124 -2.50712283748375
 1  21.42306659665967  0.37749594779478 -1.91067520092009
 1  19.65323805080508 -0.51517923632363 -2.02924099879988
 1  20.76226300490049  2.72309188828883  0.61636238983898
 1  22.07880562086209  1.77007359005901 -0.35040775577558
 1  20.88558521142114  3.04439192639264 -1.27291208750875
 1 -0.29139476457646 -3.62006475587559  3.12621096909691
 1 -1.63440312131213 -4.94405167886789  3.58239887648765
 1 -1.89108312161216 -2.97245572267227  3.92580673387339
 8 -11.80153852815282  3.73177797699770 -0.87747956165617
 1 -12.51851236273627  2.34490573067307 -1.35051565656566

