%nproc=4
%Mem=2GB
# td=(NStates=1) iop(3/107=0140000000,3/108=0140000000) iop(3/107=0140000000,3/108=0140000000) CAM-B3LYP/6-31G(d,p) 

TD

0 1
12 -6.71216378847885  0.61263040714071  0.21263888338834
 6 -4.50168727522752 -1.93621204300430  0.56908718571857
 6 -4.29462127752775  2.83315494859486  0.95449833143314
 6 -9.06131883658366  3.07169119321932 -0.11604110581058
 6 -9.10091818941894 -1.81639466906691 -0.67748780748075
 7 -4.75967103900390  0.47489688738874  0.79571860396040
 6 -3.92501976757676 -0.76067577437744  0.71776233163316
 6 -2.62172559115912 -0.43328508770877  1.02180424272427
 6 -2.46690665646565  1.12984313311331  1.22596475897590
 6 -3.98387465036504  1.52327241244124  0.92223699839984
 6 -1.98721500720072  1.49896169206921  2.71447601040104
 6 -1.64472322072207 -0.97650021342134 -0.05650432413241
 6 -0.15234335263526 -0.99636134273427  0.32111118461846
 6  0.76189726892689 -1.28074531143114 -0.89570774457446
 8  0.64118418651865 -0.76442905540554 -1.97512850305031
 8  1.78771905850585 -1.93435373397340 -0.46679160166017
 7 -6.74702644484448  2.56208657865787  0.38364211211121
 6 -5.54303486438644  3.21291993519352  0.66855315151515
 6 -5.91774598979898  4.91873155795580  0.62783765236524
 6 -7.34153486688669  4.89627571807181  0.41376796009601
 6 -7.79219092299230  3.39388819721972  0.21886671807181
 6 -5.16482140244024  5.98935636613661  0.92684035203520
 6 -8.30147170847085  6.01429834993499  0.41939146284628
 8 -8.00920483668367  7.23761537813781  0.52486034283428
 7 -8.72810636413641  0.63911477067707 -0.25804845394539
 6 -9.42447612001200  1.85405014031403 -0.47510856315632
 6 -10.84642127242724  1.45847571867187 -0.85132091329133
 6 -10.96017037453745  0.11374227862786 -1.02002285778578
 6 -9.55634729802980 -0.43339150235023 -0.77593967066707
 6 -11.92579935523552  2.47731392449245 -0.83713836463646
 6 -12.01247436793679 -0.86978054035404 -1.34022215591559
 6 -12.02073893599360 -0.82025419061906 -2.91302409710971
 7 -7.02658914181418 -1.29898245954595  0.01551890739074
 6 -8.02244490609061 -2.21707170387039 -0.46538973697370
 6 -7.41191877697770 -3.74678200060006 -0.51250226032603
 6 -6.06511213241324 -3.51195035593559 -0.21271953255326
 6 -5.90459674837484 -2.16541535603560 -0.02722653835384
 6 -8.29966849034903 -4.89023640144014 -0.87832064796480
 6 -4.85698190269027 -4.31690748884888  0.03263128882888
 8 -4.64493624232423 -5.59556009430943  0.01666217281728
 6 -3.89141286668667 -3.28218877807781  0.55938058525853
 6 -3.16669017991799 -3.58873504900490  1.98551826482648
 8 -3.70544578467847 -3.75345208000800  2.91452012181218
 8 -1.84185586048605 -3.48570487578758  1.77502744194419
 6 -0.92948147024703 -3.71468655875588  3.06092051725173
 6  2.78754064686469 -2.24027920482048 -1.51250249434943
 6  3.94525829322932 -1.29697669876988 -1.11861739403940
 6  5.05596635203520 -1.15460233163316 -1.85052125372537
 6  5.29377336113611 -2.00626376107611 -3.13875085728573
 6  6.11728555315532 -0.11104875777578 -1.73173973247325
 6  7.39193788778878 -0.85094087618762 -0.90196693399340
 6  8.44720728102810  0.30502613721372 -0.69582806330633
 6  9.72863595299530 -0.36988390869087 -0.09034734043404
 6  9.28849636593659 -0.94601341604160  1.30136450525052
 6  11.00256258625863  0.62498735293529 -0.10239540114011
 6  12.42832810331033  0.07517882508251  0.09668797999800
 6  13.54337588018802  0.93520079477948  0.21174407280728
 6  14.82946928212821  0.24687796589659  0.51242590469047
 6  15.00368535663566 -0.32376465696570  1.94875479947995
 6  15.95205483388339  1.39780468246825  0.21426463176318
 6  17.38587806590659  0.59146437083708  0.20159328542854
 6  18.31110065746575  1.59687687888789 -0.11749189598960
 6  19.77029923102310  0.99645814061406 -0.30305038873887
 6  19.83024282558256  0.31005643594359 -1.74729052025203
 6  20.87398456735674  1.96496791479148 -0.05087018291829
 1 -3.62254289258926  3.57445869686969  1.05502490419042
 1 -9.89178316081608  3.77335642074207 -0.38208184208421
 1 -10.06465895749575 -2.60266066536654 -0.88918174407441
 1 -2.19456197299730 -1.16902452025203  1.96833688198820
 1 -1.71350068866887  1.69778025422542  0.56701315471547
 1 -0.71881326502650  1.10372868726873  2.91627233833383
 1 -2.29475764966497  2.54056263266327  2.82953907170717
 1 -2.86410874337434  0.70961884718472  3.09474534363436
 1 -2.27599661996200 -1.83797507050705 -0.45967375417542
 1 -1.50719588858886 -0.23387486038604 -1.02915270607061
 1  0.10930892919292 -0.28197963126313  0.82404827002700
 1 -0.14562828262826 -2.05330166396640  1.10074030613061
 1 -4.34223875427543  6.21417924582458  0.31249620732073
 1 -6.02157243784378  6.92199487538754  1.01548845494549
 1 -4.83158418661866  6.07023598459846  2.05205297759776
 1 -9.42537555165516  5.76760186938694  0.09544316851685
 1 -11.87797735133513 -1.96843771127113 -0.91201562876288
 1 -13.12978919391939 -0.69609320952095 -0.90757839423942
 1 -12.74735255835584 -1.68561067646765 -3.23862097919792
 1 -12.45151211501150  0.17851527302730 -3.20597276677668
 1 -10.60681750615062 -1.29507282428243 -3.03714032143214
 1 -8.92135131843184 -4.83855041064106 -1.97630985898590
 1 -7.63694890949095 -5.87258727132713 -1.19296894879488
 1 -8.84487176717672 -5.21328328952895  0.03700831033103
 1 -3.06962654405441 -3.33405713061306 -0.09141744854486
 1  3.19166078147815 -3.13684095789579 -0.98897461456146
 1  2.41188547734773 -2.13391930693069 -2.80937117241724
 1  3.49460678837884 -0.55741849024903 -0.08516491489149
 1  4.69995305230523 -1.39344281678168 -3.96748686368637
 1  5.98874245264526 -1.79978865426543 -3.52934415831583
 1  5.06438026542654 -2.91168378267827 -2.95406959075908
 1  6.56219664156416  0.45694103150315 -2.56498911611161
 1  5.72737784718472  0.74048959675968 -1.28418268166817
 1  7.39087026592659 -1.37225542264226  0.14134585618562
 1  7.88870426882688 -1.55952474277428 -1.63956343224322
 1  8.46954908630863  0.61558215301530 -1.96736952225223
 1  8.16030452855285  1.08894408260826 -0.34396868846885
 1  10.11415386248625 -1.34022146584658 -0.79303646124612
 1  8.74518676297630 -1.64148296399640  1.09186754755476
 1  10.33304937433743 -1.05929981118112  1.96991888328833
 1  8.97606081768177 -0.22909413181318  2.04116542164216
 1  10.96586022382238  1.17279003890389 -0.90119729132913
 1  11.09768951555155  1.16424530013001  0.79047292759276
 1  12.32376991919192 -0.52901534103410  1.05167885118512
 1  12.51451360536054 -0.65653387398740 -0.73897689518952
 1  13.43094796479648  1.87262680768077 -0.50427933253325
 1  13.13910595539554  1.56997124842484  1.34529031843184
 1  15.15061648744875 -0.59554707070707 -0.08527671887189
 1  15.10788068796880  0.57654805030503  2.77736050905091
 1  14.14385165866587 -0.92262993489349  2.26664416251625
 1  15.79868690179018 -0.85804938803880  2.00803728142814
 1  15.72086322122212  1.66360635403540 -0.93888386308631
 1  16.10500453305330  2.20078961446145  0.80567889108911
 1  17.55041635673567 -0.10640747014702  1.15624581128113
 1  17.44706223042304 -0.06629846064606 -0.67527890529053
 1  18.24501950905091  2.13693024082408 -1.25063805210521
 1  18.61723171927193  2.43552745964596  0.51750842134213
 1  19.97912047324732  0.32533537973797  0.29398274907491
 1  20.01768008600860  1.06738178777878 -2.38577070227023
 1  20.72355664566457 -0.11780358215821 -1.82118625202520
 1  19.25526825382538 -0.70521824022402 -1.75886396109611
 1  20.68018479707971  2.32743232233223  0.91741249484949
 1  21.88184592489249  1.53077966066607 -0.00735345034503
 1  20.92945959885989  2.76776426362636 -0.82813761006101
 1  0.06955133003300 -3.34529727912791  2.80461880988099
 1 -1.26456613761376 -4.63814108780878  3.48445908250825
 1 -1.21303531683168 -2.86212468956896  3.56522067526753
 8 -11.99159753405340  3.60316511571157 -0.55395720942094
 1 -13.01244175567557  1.81134237433743 -0.82322292729273

