%nproc=4
%Mem=4GB
# td=(NStates=1) iop(3/107=0140000000,3/108=0140000000) iop(3/107=0140000000,3/108=0140000000) CAM-B3LYP/6-31G(d,p) 

TD

0 1
12 -5.67906941354135  1.18730360466047  0.23382198739874
 6 -5.03722410961096 -2.17897636093609 -0.39163603040304
 6 -3.47544633373337  1.18039832463246  2.68710408370837
 6 -6.09864866056606  4.57810107430743  0.60907111591159
 6 -8.03848961606161  1.12910376107611 -2.38647632113211
 7 -4.33929818311831 -0.28694688648865  0.98280961976198
 6 -4.26976050355035 -1.60047374897490  0.60802315191519
 6 -3.23785691019102 -2.35131843464346  1.55686004970497
 6 -2.95379855085509 -1.29059195009501  2.66985354145415
 6 -3.54481190859086 -0.00596322402240  2.06222080728073
 6 -3.51387442684268 -1.76372981438144  3.95775847524752
 6 -2.03705889908991 -2.79516692599260  0.68389369486949
 6 -1.06944858835884 -3.71766934753475  1.47114070207021
 6  0.25984108460846 -4.03225706640664  0.77732592729273
 8  0.38877894219422 -3.52454976857686 -0.33188942314231
 8  1.04176102180218 -4.81620123742374  1.39741434873487
 7 -4.79481029732973  2.70165954285429  1.49042927462746
 6 -3.93861595139514  2.45345276697670  2.46079668296830
 6 -3.69597910161016  3.53320182238224  3.17734829102910
 6 -4.39014956765677  4.64083561186119  2.45007427872787
 6 -5.18126423062306  4.04046214141414  1.45532162446245
 6 -2.89580494359436  3.70019739553955  4.42505669506951
 6 -4.56220275087509  6.02131955245525  2.99102860766077
 8 -3.83958400640064  6.49995788378838  3.85776967686769
 7 -6.77155095499550  2.60400029582958 -0.75975763206321
 6 -6.87493020782078  3.97659727692769 -0.34451614031403
 6 -7.88822400880088  4.58576530133013 -1.16059016851685
 6 -8.37367682098210  3.65553248314831 -2.12495143954395
 6 -7.65204409490949  2.42136814561456 -1.86972291879188
 6 -8.25962895379538  6.00341025042504 -1.02511202000200
 6 -9.37054141744174  3.81014141234123 -3.23827846064606
 6 -8.69746119981998  4.33104125032503 -4.49773617761776
 7 -6.28973739273927 -0.20109512721272 -1.16680177217722
 6 -7.30228975857586 -0.02329839843984 -2.16973118381838
 6 -7.58028553575358 -1.32438414201420 -2.70513303590359
 6 -6.65243479227923 -2.22624219601960 -2.05425159085909
 6 -5.95156357175718 -1.41176474157416 -1.14838096849685
 6 -8.40849630743074 -1.58692881888189 -3.92735963216322
 6 -6.20458412551255 -3.53306889078908 -2.03031658675868
 8 -6.56054044954495 -4.49014671307131 -2.73807007210721
 6 -5.06688525062506 -3.64645269786979 -0.91744406420642
 6 -5.53180065746575 -4.63262870397040  0.12535620742074
 8 -5.93516928852885 -4.43412242034203  1.27088345174517
 8 -5.22808250645065 -5.83890508690869 -0.40045318991899
 6 -5.62868043224322 -7.06861871517152  0.43429525932593
 6  2.28823979717972 -5.14327544774477  0.68465241964196
 6  3.33458799379938 -4.14193435433543  1.16614451425143
 6  4.04214360456046 -3.32188505860586  0.32386602160216
 6  3.65241958085809 -3.21987692899290 -1.20172967746775
 6  5.23465989178918 -2.44262931053105  0.78723252205221
 6  6.54578945024502 -2.71232415761576  0.03734520192019
 6  7.64241956555656 -1.76029538503850  0.53544923542354
 6  9.00670149144914 -2.01009584318432 -0.07721550405041
 6  9.65335171687169 -3.35525616601660  0.11955849814982
 6  10.04521510061006 -0.80811104850485  0.36414893039304
 6  11.35843314571457 -0.86758636553655 -0.38341710791079
 6  12.20734842344234  0.37596222372237  0.12031887948795
 6  13.51211366716672  0.56272114201420 -0.58529329252925
 6  14.56931523052305 -0.56549595219522 -0.24474862576258
 6  14.15393133273327  1.94814098569857 -0.32667192199220
 6  15.47074126452645  2.28674670287029 -1.00378537353735
 6  16.04335692009201  3.58818357115712 -0.67493810701070
 6  17.30782603170317  3.99299714131413 -1.42976691189119
 6  17.22872546224622  3.96245113681368 -2.96993921812181
 6  17.90988039413941  5.18922418771877 -0.80261972087209
 1 -2.96676239903990  0.99828410381038  3.62487295569557
 1 -6.20612859165917  5.69853523392339  0.62227121882188
 1 -8.85500590779078  1.05702600550055 -3.07127260606061
 1 -3.61026209100910 -3.27457277267727  2.09689775057506
 1 -1.78728585248525 -1.25740340194019  2.65518679477948
 1 -3.10817059615962 -2.76085924712471  4.12812635663566
 1 -3.19053984668467 -1.02200210461046  4.93092512231223
 1 -4.77079959165917 -1.69776885778578  3.98227217771777
 1 -2.19541485518552 -3.39345886318632 -0.20095071887189
 1 -1.58626645904590 -1.80283940024002  0.32106022762276
 1 -0.75591102460246 -3.33443473907391  2.38070228892889
 1 -1.33336805840584 -4.65555268646865  2.02287408540854
 1 -1.86754686848685  2.94869439383938  4.37581349104910
 1 -2.53819480958096  4.63111031703170  4.35975223292329
 1 -3.62778577357736  3.07898889638964  5.08654366036604
 1 -5.17195025892589  6.53345754015402  2.29928524992499
 1 -9.88895802930293  2.83528418551855 -3.37291054275428
 1 -10.01849264716472  4.45441928602860 -2.82245253595360
 1 -9.45879567936794  4.59465787978798 -5.23762896519652
 1 -8.12106161556156  5.33536328172817 -4.20204015901590
 1 -7.95986583558356  3.38305766456646 -4.95240516531653
 1 -8.17279486908691 -0.65810635353535 -4.71848284658466
 1 -8.13678466146615 -2.47162056715672 -4.49814245124512
 1 -9.50232031153115 -1.43722054545455 -3.73776068276828
 1 -4.18944630203020 -4.11875670227023 -1.56285957285729
 1  2.41594272727273 -6.08053599659966  1.15332128902890
 1  2.05645638903890 -5.09605658175818 -0.30079352895290
 1  3.70660278257826 -4.38442772457246  2.15633064066407
 1  2.50034502120212 -3.46026164726473 -1.29802234323432
 1  3.75536014931493 -2.21808536783678 -1.63705617611761
 1  4.29035120912091 -3.93142687188719 -1.71426035193519
 1  5.04646468736874 -1.43414983898390  0.36170805430543
 1  5.16294482178218 -2.69755138753875  1.91807668796880
 1  6.91293882058206 -3.83203639573957  0.24894277827783
 1  6.16443660406041 -2.56591420042004 -1.16018661416142
 1  7.48739767106711 -0.58926225132513  0.18772601810181
 1  7.63469557245725 -1.90830741384138  1.78398278357836
 1  8.72061617091709 -1.93123139833983 -1.20389372747275
 1  8.91193571227123 -4.15823459485949 -0.04954874727473
 1  10.40685002580258 -3.39894409650965 -0.59645975947595
 1  9.86789585098510 -3.55433652515251  1.25514595729573
 1  9.54960411101110  0.26841256745675  0.01053641744174
 1  10.38697879537954 -0.68819535343534  1.33473301330133
 1  11.93310845214521 -1.68191822372237  0.08138376517652
 1  11.16896298299830 -0.71400430533053 -1.38392972657266
 1  11.60591162466247  1.21436586578658 -0.02633218841884
 1  12.07698252155215  0.12275346674668  1.26318459865987
 1  13.40199700040004  0.42981741404140 -1.57787002570257
 1  14.89384872317232 -0.44632284498450  0.96276195619562
 1  14.30556612761276 -1.70887990429043 -0.49634595609561
 1  15.49544053245325 -0.70348354655466 -0.75575246774677
 1  13.38920711491149  2.76594121322132 -0.63580536823682
 1  14.35477217751775  1.99251954115412  0.64329154305431
 1  16.16614827062706  1.57190580328033 -0.74826131683168
 1  15.16530211361136  2.02201611441144 -2.05724710441044
 1  15.26544794939494  4.35236061406141 -1.02113411151115
 1  16.09540231033104  3.95904254565457  0.41717161756176
 1  18.25899958135814  3.38668015921592 -1.09443852345235
 1  16.69354007440744  4.78405493439344 -3.00973333313331
 1  18.15370129362936  3.99808932223222 -3.41362596769677
 1  16.77916811701170  3.03765483548355 -3.35625365996600
 1  17.82756880408041  5.25915713321332  0.29131079527953
 1  18.78505602790279  5.68160231243124 -1.11550846524653
 1  17.24367591849185  6.05146464956496 -1.05491955325533
 1 -5.30959626102610 -7.78602803590359 -0.20205374307431
 1 -6.57573200350035 -6.84430151675168  0.82548605610561
 1 -5.04370253885389 -7.14785636123612  1.16209066566657
 8 -7.89753734533453  6.84716121692169 -0.25185296929693
 1 -8.79597789488949  6.37171281618162 -1.96245192799280

