%nproc=4
%Mem=2GB
# td=(NStates=1) iop(3/107=0140000000,3/108=0140000000) iop(3/107=0140000000,3/108=0140000000) CAM-B3LYP/6-31G(d,p) 

TD

0 1
12 -6.88156072817282  0.70063920802080  0.16519413891389
 6 -4.72554966146615 -2.00983940574057  0.49554983198320
 6 -4.21604341974197  2.63546517961796  0.87754063566357
 6 -8.89407211191119  3.26190021412141 -0.33801330303030
 6 -9.33478157575758 -1.68022105170517 -0.66924698339834
 7 -4.72243731563156  0.42809220692069  0.57695672777278
 6 -3.96767403300330 -0.78569827662766  0.52451300670067
 6 -2.48487190579058 -0.59876163536354  0.69854191649165
 6 -2.41171113691369  0.91121126992699  1.17716987948795
 6 -3.89869613251325  1.38317840304030  0.82713748844884
 6 -1.87788407410741  1.25258705460546  2.64719928272827
 6 -1.52328107650765 -1.18286084948495 -0.35542421612161
 6 -0.10860897919792 -1.32925463206321  0.38028710221022
 6  0.84302538173817 -1.26806404330433 -0.96870504430443
 8  0.72108217631763 -0.71592420492049 -1.98650964116412
 8  1.86632691929193 -2.11884218281828 -0.45804072657266
 7 -6.49736147834783  2.64111448144814  0.21340508840884
 6 -5.51081164206421  3.25804444764476  0.54007030323032
 6 -5.77733194839484  4.67577726252625  0.52959782838284
 6 -7.10380109350935  4.75497158765877  0.37189377267727
 6 -7.62628433233323  3.54672348074807  0.04072890429043
 6 -4.80739565986599  5.51725915641564  1.13556122412241
 6 -7.82684424572457  6.10247716781678  0.44184370807081
 8 -7.45731964816482  7.14338595519552  0.67924578137814
 7 -8.59451300480048  0.68615947514751 -0.28627127622762
 6 -9.46134980738074  1.93589832513251 -0.44918597089709
 6 -10.71065769606961  1.57372724382438 -0.87142292349235
 6 -10.74000835833583  0.24837574197420 -1.08787964346435
 6 -9.46833849714971 -0.36315447864786 -0.64955703240324
 6 -11.76694346964696  2.62593878697870 -1.23485813661366
 6 -12.16498961946195 -0.53756731903190 -1.34607274097410
 6 -12.09939680178018 -0.77785995119512 -2.85970876557656
 7 -6.86248273117312 -1.25168773007301 -0.05319796429643
 6 -8.07511017261726 -2.17161715841584 -0.28723192119212
 6 -7.63264084918492 -3.61355867826783 -0.36781779187919
 6 -6.28948456965697 -3.57266642754275 -0.03407166776678
 6 -5.99927621632163 -2.15952476697670  0.15969215351535
 6 -8.49018754225423 -4.89562694049405 -0.63027584348435
 6 -5.14077028152815 -4.37894369246925  0.24430245594559
 8 -4.99596134483448 -5.58627916621662  0.06070657725773
 6 -4.12401612701270 -3.36068662786279  0.64290893809381
 6 -3.47267077797780 -3.71203737923792  1.97043675667567
 8 -4.08962420252025 -4.13490022482248  3.06904557435744
 8 -2.04651632653265 -3.51465777107711  1.88850879007901
 6 -1.33227174927493 -3.66298138823882  3.14532895809581
 6  2.99788168096810 -2.36194137103710 -1.29349059315932
 6  4.06342010941094 -1.45220222132213 -1.03920945324532
 6  5.09549030443044 -1.28360523192319 -1.83787998959896
 6  5.37576155995600 -1.98506164086409 -3.02952993519352
 6  6.18392221682168 -0.15408306120612 -1.40582714121412
 6  7.26880557455746 -0.84650043214321 -0.73412014931493
 6  8.41903446374637  0.21467710231023 -0.11615009550955
 6  9.75097818721872 -0.49893681398140  0.27679937423742
 6  9.57313482978298 -1.08765758045805  1.65186955575558
 6  10.97406973697370  0.57580243444344  0.33045788418842
 6  12.30639591009101 -0.25648434123412  0.37402571377138
 6  13.47441898449845  0.81564883958396  0.43312621102110
 6  14.73147948314831  0.27111038913891  0.46956161826183
 6  15.01908689678968 -0.63845612611261  1.78538846284628
 6  15.90724035243525  1.33075797779778  0.33909711501150
 6  17.35925540364036  0.78371359575958 -0.07772464636464
 6  18.21100064746475  1.82251944314431 -0.31336148294830
 6  19.61383358445845  1.61844033883388 -0.67405748944894
 6  19.71116091739174  0.95701113141314 -1.94681047224723
 6  20.50712788168817  2.88149956795680 -0.55376047194719
 1 -3.42740337863786  3.52628387938794  1.16640604230423
 1 -9.47483146564656  4.26668575367537 -0.55157879177918
 1 -10.09163165476548 -2.44047444674468 -0.87407023292329
 1 -2.19467198399840 -1.17948556635664  1.48717876617662
 1 -1.78488782738274  1.23173364956496  0.48047450085008
 1 -1.23771515521552  1.06691500590059  2.87991870297030
 1 -2.08941711561156  2.50093867026703  2.60552667046705
 1 -2.66051838433843  1.24789267456746  3.23000886998700
 1 -1.95076409670967 -2.10582185518552 -0.58917670447045
 1 -1.68389355835584 -0.37434890779078 -1.11288107890789
 1  0.21862986128613 -0.44513594689469  0.78248411361136
 1 -0.06563028282828 -1.98540487428743  0.92219245134513
 1 -4.08852338273827  5.61469929782978  0.45897085478548
 1 -5.41920220082008  6.48357103300330  0.93963086918692
 1 -4.57828885708571  5.59145810681068  1.99232700500050
 1 -8.89005201930193  6.00671578077808  0.27220084428443
 1 -12.07910746434643 -1.47488835633563 -0.64989941714171
 1 -12.78544475947595  0.21388778857886 -1.05220285668567
 1 -12.93576139923992 -1.57441955735574 -3.12176929402940
 1 -12.09900686448645 -0.01970454895490 -3.47268943844385
 1 -11.03195001940194 -1.51304462146215 -2.95363197059706
 1 -9.18747793109311 -5.02784934053405 -1.74538676667667
 1 -7.67700291489149 -5.83786379897990 -0.73917356925693
 1 -9.25678295829583 -5.29878183938394 -0.04650004050405
 1 -3.19559914131413 -3.50473419831983 -0.00240854765477
 1  3.26956857225723 -3.51170844464447 -1.22436815391539
 1  2.68190247904790 -2.56831274627463 -2.23437367266727
 1  3.85881320902090 -0.86564931333133 -0.16194259265927
 1  4.63644670167017 -1.44302777527753 -3.79742985798580
 1  6.65413899229923 -2.09997867326733 -3.84425564946495
 1  5.09319314671467 -3.00848346264626 -2.47952213601360
 1  6.22047246914692  0.37376271367137 -2.48240085728573
 1  5.54863997339734  0.31697724552455 -0.61309557295730
 1  6.94281546044605 -1.47758595569557  0.62275399699970
 1  7.94816021442144 -1.20140893119312 -1.47379685558556
 1  8.47867999939994  0.89407000180018 -0.79849263456346
 1  8.17927642574258  0.77790297849785  0.62941865026503
 1  10.10851329842984 -1.00593803750375 -0.53693085068507
 1  8.61382362666267 -1.53970278597860  1.37953631443144
 1  10.37364343374337 -1.58261214241424  1.55238713011301
 1  9.27555076667667 -0.40223144554455  2.21621292639264
 1  11.20313395119512  1.46826958685869 -0.48839601120112
 1  10.67853760036004  1.28064694029403  1.06478035833583
 1  12.02533007520752 -0.86562900240024  1.38853253655366
 1  12.57339949394940 -0.84187240784078 -0.47486048354836
 1  13.24533940394040  1.39238878387839 -0.26068497309731
 1  13.40072211701170  1.30732498379838  1.45008079747975
 1  14.76625805160516 -0.41651916791679 -0.28465665686569
 1  14.40410030993099 -0.26713631813181  2.76323909690969
 1  14.66313358685869 -1.48392606450645  1.79408690679068
 1  16.17350438353835 -0.85084866796680  2.00448692639264
 1  15.88602973787379  2.27174716811681 -0.71146112081208
 1  16.00125415801580  1.71600113561356  1.15858418161816
 1  17.79334064916492  0.29783295389539  0.58752893959396
 1  17.06153367756776 -0.07281911271127 -1.09624100150015
 1  17.82890789788979  2.44913146094609 -1.03087607590759
 1  18.28983897999800  2.47435134203420  0.43155982648265
 1  19.84614717591759  0.94213705990599  0.11658500930093
 1  19.28699701770177  1.77201225082508 -2.68202032723272
 1  20.48842313231323  0.56329452765277 -1.84466860026003
 1  19.10119284628463  0.10684296589659 -2.05694376907691
 1  20.28237501610161  3.32659223832383  0.26580733433343
 1  21.53597133743374  2.48336491919192 -0.79583229822982
 1  20.15244189708971  3.33547103430343 -1.45103990029003
 1 -0.42565819091909 -3.58618136753675  2.57530587858786
 1 -1.47432711371137 -4.59661693539354  3.57662829942994
 1 -1.58424243754375 -2.72991146824682  4.00588474167417
 8 -11.52220059435944  3.92949774897490 -1.30211202490249
 1 -12.80083059455946  2.18040928102810 -1.45355596059606

