%nproc=4
%Mem=4GB
# td=(NStates=1) iop(3/107=0140000000,3/108=0140000000) iop(3/107=0140000000,3/108=0140000000) CAM-B3LYP/6-31G(d,p) 

TD

0 1
12 -5.64592609920992  1.22438731303130  0.21755036023602
 6 -5.02283267046705 -2.10733919721972 -0.35895276207621
 6 -3.38578736783678  1.23390367516752  2.78981435473547
 6 -6.24534333003300  4.55744900910091  0.69396960576058
 6 -7.97755352245225  1.24717556825683 -2.43913158665867
 7 -4.28686293959396 -0.27483567536754  1.00548188698870
 6 -4.16512003950395 -1.62352605420542  0.63671602120212
 6 -3.17436056055606 -2.36062936573657  1.50229459315932
 6 -2.91540471147115 -1.28338122902290  2.63126968306831
 6 -3.52897032443244 -0.05455808350835  2.14606919211921
 6 -3.61151419081908 -1.75048849024902  3.96684938433843
 6 -1.87193238643864 -2.68288569786979  0.58626393189319
 6 -0.95317696119612 -3.65101268186819  1.32281586958696
 6  0.22560766126613 -3.98807264796480  0.58312650735074
 8  0.42935299959996 -3.66924423802380 -0.53340957515752
 8  1.09490633633363 -4.82032164946495  1.34561916921692
 7 -4.75666648294829  2.65120449734974  1.33844407610761
 6 -3.88580066986699  2.42021944364436  2.44368497179718
 6 -3.69833933763376  3.69104760696070  3.13261381758176
 6 -4.51583213591359  4.62030355865587  2.55749502080208
 6 -5.24284038823882  4.01938003320332  1.49115520782078
 6 -2.77777314041404  3.77164454025403  4.34950914031403
 6 -4.73131966256626  6.00031745224522  3.02151165596560
 8 -4.16837688568857  6.54791267926793  3.96636053595360
 7 -6.83841764166417  2.60930082588259 -0.72549420572057
 6 -6.91026374117412  3.95334495169517 -0.39374106280628
 6 -7.89121430783078  4.63597032183218 -1.21396550605060
 6 -8.37514696799680  3.68121505140514 -2.03628257265727
 6 -7.76373526402640  2.45249125792579 -1.67827377387739
 6 -8.19889288018802  6.02694260366037 -1.18546805560556
 6 -9.51280564386439  3.75361575977598 -3.07853248604860
 6 -8.93083453715372  4.15251339753975 -4.46173257725773
 7 -6.31454987398740 -0.09372439013901 -1.18152324432443
 6 -7.32357188678868 -0.04759082768277 -2.20254446514652
 6 -7.55091259845985 -1.36317802140214 -2.73249577217722
 6 -6.64385393419342 -2.17412698449845 -2.02671883758376
 6 -5.90889930533053 -1.35327889298930 -1.06889301970197
 6 -8.58095355315531 -1.69323944994499 -3.71305820202020
 6 -6.26987065416542 -3.55509109300930 -2.04186774187419
 8 -6.53396779227923 -4.48032573097310 -2.67343360846085
 6 -5.03727228932893 -3.55499355195519 -0.97485980578058
 6 -5.28586606400640 -4.64819026012601  0.11373504530453
 8 -5.81895766736674 -4.46020502860286  1.18792515591559
 8 -4.93220291849185 -5.84070526692669 -0.39945308990899
 6 -5.35623318751875 -6.90863271657166  0.51423325312531
 6  2.38054902810281 -5.14923604380438  0.59630358475848
 6  3.33958849384939 -4.09591975287529  1.07822572237224
 6  4.00175956615662 -3.25529839993999  0.18039167416742
 6  3.79126346524652 -3.13260820212021 -1.27260676517652
 6  5.13410983678368 -2.33661870947095  0.72057585638564
 6  6.54736960826083 -2.63605653085309  0.07991945934593
 6  7.63926925052505 -1.72967232273227  0.64785047554755
 6  9.08083890519052 -1.96844167776778 -0.07106488898890
 6  9.52898928062806 -3.41935257565757  0.21196773907391
 6  10.03339391849185 -0.93210344774477  0.50140265576558
 6  11.31675897829783 -0.84226383328333 -0.28541730793079
 6  12.11925961456146  0.38111273877388  0.24884173177318
 6  13.47008946474647  0.49946481638164 -0.47223198639864
 6  14.37883618261826 -0.75016441904190 -0.35531968286829
 6  14.15097103670367  1.75745191679168 -0.03270252505251
 6  15.43610780118012  2.04371239943994 -0.87091208620862
 6  16.06826941134113  3.60621537433743 -0.64869548274827
 6  17.32322757185718  3.92326016761676 -1.48871280648065
 6  17.04431702140214  3.88959385108511 -2.94894711891189
 6  17.92660206630663  5.23396866216622 -0.99815927482748
 1 -2.67912363516352  1.23753802920292  3.62388285668567
 1 -6.47754573337334  5.54136951735174  0.99308830053005
 1 -8.62190259745975  1.11613191609161 -3.12069754855486
 1 -3.60160122492249 -3.32215753115312  1.91682974377438
 1 -1.81761888578858 -1.24266192779278  2.81796307240724
 1 -3.06327610671067 -2.68603176437644  4.36469001300130
 1 -3.41639243194319 -0.91364126852685  4.68922095189519
 1 -4.67616012771277 -1.77585666656666  3.77260121062106
 1 -2.24178949264926 -3.15440495779578 -0.30948157195720
 1 -1.20540837323732 -1.91535065136514  0.28710683228323
 1 -0.56839227272727 -3.31766306190619  2.43400761946195
 1 -1.50658538013801 -4.60075720692069  1.53100489848985
 1 -1.69523963776378  4.15161468586859  3.92535844554455
 1 -3.05769675977598  4.65954316031603  5.11406766446645
 1 -2.74599759475948  2.60765176267627  4.79799480548055
 1 -5.52528559245925  6.47363155755576  2.31600692209221
 1 -10.01561069456946  2.86581723882388 -3.32088534023402
 1 -10.28345914381438  4.64467831193119 -3.03990428112811
 1 -9.68058785858586  3.95716413041304 -5.24882008430843
 1 -8.48567807720772  4.94470421582158 -4.39643959895990
 1 -8.19648949794979  3.34249360816082 -4.77747767256726
 1 -8.14221181078108 -1.33934447734774 -4.80469146744674
 1 -8.74655563856386 -2.82171557665767 -3.89205184218422
 1 -9.55794587408741 -1.17951477487749 -3.68340524722472
 1 -4.16613397079708 -3.86638146474647 -1.29590287718772
 1  2.51192232523252 -6.05948389138914  1.08978493539354
 1  2.18490923432343 -5.14386136223622 -0.36938038763876
 1  3.52290441274127 -4.19581886368637  2.09286429402940
 1  2.92801778847885 -3.44666028712871 -1.76349889088909
 1  3.88659327262726 -2.05872943224322 -1.72242471297130
 1  4.46306848084809 -3.63623735293529 -1.89922884878488
 1  4.88875891679168 -1.25492191619162  0.48175005850585
 1  5.23791231853185 -2.55298693109311  1.80124500480048
 1  6.73103062976298 -3.79585277737774  0.20693857785779
 1  6.72844300470047 -2.50961857085709 -1.02300289578958
 1  7.25405433673367 -0.60861418651865  0.49311655715572
 1  7.67885998889889 -1.91642822592259  1.75716010131013
 1  8.84286839613961 -1.86205448064806 -1.04041737983798
 1  8.70137465616562 -4.00554932633263 -0.21660545294529
 1  10.45459480028003 -3.52698690079008 -0.34434454795480
 1  9.71818087948795 -3.69364045554555  1.14513495619562
 1  9.50327947854785  0.11504723092309  0.42864822862286
 1  10.45908600610061 -1.10143667756776  1.52862240224022
 1  11.91963710501050 -1.90119015091509 -0.12645701890189
 1  10.97242332903290 -0.61266417131713 -1.37789912351235
 1  11.43204423792379  1.36545097429743  0.15060550535053
 1  12.24004882818282  0.15778697009701  1.42948122832283
 1  13.05363216391639  0.48723315561556 -1.62444468316832
 1  14.41624096239624 -1.22380059275928  0.81683736373637
 1  13.92030760176018 -1.73057207350735 -0.93426974847485
 1  15.37642863126313 -0.68272147034703 -0.86338323082308
 1  13.39523771797180  2.66558117721772  0.04499271157116
 1  14.58936563686369  1.52260254945495  0.94088130203020
 1  16.24432608840884  1.54336294899490 -0.96980347104710
 1  15.10408599199920  2.06426033883388 -1.89095047474747
 1  15.32543394799480  4.19993537153715 -0.79340133823382
 1  16.26185895599560  3.83514015541554  0.37363726412641
 1  17.86065974737474  3.15260675187519 -1.20980005960596
 1  16.23282400280028  4.54410093899390 -3.10610297009701
 1  17.77022294579458  4.27898741204120 -3.56711131623162
 1  16.65937613781378  2.91543261326133 -3.55300333493349
 1  18.01617766496650  5.14309552705271  0.03150481468147
 1  18.81909943224322  5.31822597479748 -1.55471238563856
 1  17.34646619751975  6.25054455755576 -1.02269633093309
 1 -5.16007130853085 -7.77630706380638 -0.01931546924692
 1 -6.31539596989699 -7.02137922452245  0.73232674017402
 1 -4.82832100070007 -6.71412298789879  1.36909136573657
 8 -7.84022161376138  6.91443794459446 -0.37521530553055
 1 -8.70292858995900  6.26461210611061 -2.25436111891189

