%nproc=4
%Mem=2GB
# td=(NStates=1) iop(3/107=0140000000,3/108=0140000000) iop(3/107=0140000000,3/108=0140000000) CAM-B3LYP/6-31G(d,p) 

TD

0 1
12 -6.56995956805681  0.57978712281228  0.10169778927893
 6 -4.52164927142714 -2.12051047284728  0.40033031003100
 6 -4.14882669806981  2.63642527562756  0.94733761536154
 6 -8.97610031473147  3.20566459055906 -0.12223172487249
 6 -9.19100719831983 -1.52133516311631 -0.78938899759976
 7 -4.67026209810981  0.31984138183818  0.59034806690669
 6 -4.00695796139614 -0.88020772757276  0.65829638503850
 6 -2.45326874547455 -0.71879363856386  1.01248331063106
 6 -2.36653661946195  0.69806995579558  1.41304346684668
 6 -3.68939520242024  1.22162224742474  0.93987876257626
 6 -2.29595588128813  1.07377917381738  2.89532409520952
 6 -1.39978872727273 -0.98682124552455 -0.16784545824582
 6 -0.14820293859386 -1.23605531213121  0.47594666816682
 6  0.92605368456846 -1.51428866576658 -0.52688086188619
 8  1.00464053215322 -1.21774438693869 -1.71412240244024
 8  1.94219450605061 -2.23375367396740  0.01963704120412
 7 -6.53166490869087  2.56833720372037  0.40509425732573
 6 -5.44279484038404  3.25811445464546  0.65369166536654
 6 -5.71316553175318  4.73101278607861  0.55969083768377
 6 -7.04125483888389  4.95229131963196  0.24669125242524
 6 -7.59981168506851  3.44376318471847  0.10198502990299
 6 -4.82385730603060  5.78299573007301  0.92792046004600
 6 -7.85897745904590  6.27128404850485  0.18882840654065
 8 -7.42505642184218  7.40914253085309  0.38001585838584
 7 -8.68088164166417  0.80218107730773 -0.58304095319532
 6 -9.52519619201920  1.86994172947295 -0.45035608790879
 6 -10.71731836213621  1.70302017311731 -0.69306508770877
 6 -10.95242960046004  0.34854575897590 -0.91461231673167
 6 -9.57227889118912 -0.23536169936994 -0.88356043274327
 6 -11.80694747004700  2.87990418351835 -0.94025867666767
 6 -12.33034615511551 -0.61599516181618 -1.31702983668367
 6 -12.45355221732173 -1.22333449864986 -2.85296809150915
 7 -6.77971445434544 -1.38354091539154 -0.18122076657666
 6 -7.99700236183618 -2.27710770747075 -0.60168336633663
 6 -7.72259984508451 -3.57332465486549 -0.58677968806881
 6 -6.27517313851385 -3.56198535943594 -0.35618387898790
 6 -5.83499978867887 -2.33849266376638 -0.05251906760676
 6 -8.50725924942494 -4.74405178297830 -1.12763557945795
 6 -5.15072127662766 -4.45953175127513 -0.03534550885089
 8 -4.95242699139914 -5.71666220452045  0.09828033463346
 6 -3.95449917531753 -3.54945550475048  0.61831647884788
 6 -3.64341785268527 -3.66023219871987  1.88074778777878
 8 -4.22574781488149 -4.05228196299630  2.85312398219822
 8 -2.21408308320832 -3.69944624992499  1.94371431063106
 6 -1.66811533363336 -3.95848093819382  3.25210963616362
 6  3.17631952475248 -2.42012718961896 -0.82260350445045
 6  4.18356212361236 -1.29787678877888 -0.87111264356436
 6  5.04101485688569 -0.89258613001300 -1.75983218481848
 6  4.97756173997400 -1.58206134083408 -3.09023600580058
 6  6.10619444404440  0.00559290639064 -1.42996955545555
 6  7.30098879287929 -0.63786956905691 -0.81544828212821
 6  8.43922648294829  0.31494712931293 -0.60274875537554
 6  9.65275836523652 -0.30817773807381 -0.00490879657966
 6  9.54214173047305 -0.93838265296530  1.39994436323632
 6  10.90569289928993  0.79588444264426 -0.09719488108811
 6  12.26171144164416  0.12018332553255  0.07201551275127
 6  13.46708825142514  1.00906818151815  0.08353125152515
 6  14.78283461866187  0.25470874897490  0.39510417251725
 6  14.93701868996900 -0.02400468096810  1.88395831983198
 6  15.95750537893790  1.38846374837484 -0.18054484918492
 6  17.34439391749175  0.69474469886989  0.09265239133913
 6  18.30095964336434  1.78075526672667 -0.22800294709471
 6  19.82923512461246  1.25160365516552 -0.53336342004200
 6  19.75075487678768  0.52243767406741 -1.76366215741574
 6  20.72088925782579  2.40187160516052 -0.25868096399640
 1 -3.28612925122512  3.50629188018802  1.19449885158516
 1 -9.49277325982598  4.12669175427543  0.05189155525553
 1 -10.26258875047505 -2.13199359865987 -0.99269209510951
 1 -2.32993551035103 -1.40739835763576  1.85999604790479
 1 -1.26513585218522  1.14822529872987  1.11589804320432
 1 -1.21573295699570  0.14786310071007  3.13754446554656
 1 -1.93014118801880  2.18187676407641  2.94436055385539
 1 -3.12997533003300  1.02150003530353  3.39334520362036
 1 -1.68479750005001 -1.71583285628563 -0.53560134693469
 1 -1.17980314931493 -0.09896136903690 -0.80086987778778
 1  0.03137113541354 -0.49122055535554  1.26859272447245
 1 -0.24044776457646 -1.95378171197120  0.98330856295629
 1 -4.17461199159916  5.77698552645264  0.12617757545755
 1 -5.23386366696670  6.81046372227223  0.85769267536754
 1 -4.29528055625563  5.89311827282728  1.99154692699270
 1 -8.85197821192119  6.02348745794579 -0.52598897469747
 1 -12.33445299889989 -1.43008387588759 -0.29053348054805
 1 -13.31755797079708 -0.04409801000100 -1.20321795819582
 1 -13.06701452455246 -2.15885800120012 -3.11429854695470
 1 -12.37811477527753 -0.00827340584058 -3.96513868336834
 1 -11.30626745114511 -1.70898421542154 -3.06140274767477
 1 -8.95153433673367 -4.45396195179518 -2.26384861286129
 1 -7.83862907750775 -5.69378939153915 -0.71708136003600
 1 -9.56989426942694 -5.00435239643964 -0.79235462596260
 1 -3.08615819721972 -3.93078680358036  0.06623831703170
 1  3.48053966936694 -3.28285555935594 -0.31595731283128
 1  2.79038332713271 -2.82893880888089 -1.78932916821682
 1  4.00212754045405 -0.74967771617162  0.17670127172717
 1  4.26091914891489 -1.37938141064107 -3.96464657965797
 1  5.87001057945795 -1.30460913631363 -3.79374059795980
 1  4.65017884528453 -2.94330694499450 -2.50249443324332
 1  6.43409383128313  0.71021635903590 -2.28532114931493
 1  5.35748085748575  0.63870941874187 -0.73574783818382
 1  6.79933111201120 -1.00530872797280  0.32964468606861
 1  7.33699909830983 -1.70143893419342 -1.66642611851185
 1  8.43118524992499  0.84070466526653 -1.56919970527053
 1  7.73670216831683  1.21696688488849  0.14253996239624
 1  9.84116656375638 -1.23695113881388 -0.65017217481748
 1  9.00517276157616 -2.14062287798780  1.47002536333633
 1  10.62946901630163 -1.20080396159616  1.71588347974798
 1  8.84162737433743 -0.29009023142314  2.15850715581558
 1  10.73853749154916  1.26119887978798 -1.15442261386139
 1  11.10722046864686  1.54737361296130  0.81061494179418
 1  12.18321586378638 -0.61992443194319  0.96136982028203
 1  12.38145029902990 -0.52971119171917 -0.96303930143014
 1  13.61558642864287  1.34771431643164 -0.86776568116812
 1  12.81669371417142  1.59738398969897  0.86857264666467
 1  14.91333275907591 -0.66445396139614  0.00052186098610
 1  15.32038193809381  0.76315671117112  2.69335210821082
 1  13.89506678017802 -0.46745441734173  2.35411290939094
 1  15.95216224932493 -0.65779936303630  1.92676915461546
 1  15.78288942384238  1.65131512491249 -1.47842781748175
 1  15.72537657025703  2.28316785228523  0.51344966816682
 1  17.46356767186719  0.59720289088909  1.21071125782578
 1  17.64437196139614 -0.16443827462746 -0.71838321572157
 1  18.27024203130313  2.55485203300330 -1.36103909220922
 1  18.72757275337534  2.58709261616162  0.61763843434343
 1  20.29501206240624  0.57245009120912  0.11135448624862
 1  19.52103042104210  1.21455650525053 -2.67595972117212
 1  20.44978926892689 -0.19796159795980 -1.73933806720672
 1  18.91255398239824  0.02587486908691 -2.00820889558956
 1  20.54978175677568  2.96107568666867  0.73299405300530
 1  21.66296403670367  2.02144872757276 -0.57300001500150
 1  20.25221187408741  3.10096758395840 -0.66110090639064
 1 -0.61861748684869 -4.16589933933393  3.10559890789079
 1 -2.11177085808581 -5.01343861756176  3.65826646324632
 1 -1.69816382968297 -3.44229270637064  4.03436758995900
 8 -11.67961633593359  4.02275707490749 -0.57581939563956
 1 -12.71134164566457  2.81248248834883 -1.50169077407741

