%nproc=4
%Mem=2GB
# td=(NStates=1) iop(3/107=0140000000,3/108=0140000000) iop(3/107=0140000000,3/108=0140000000) CAM-B3LYP/6-31G(d,p) 

TD

0 1
12 -6.81845441754175  0.45038418251825  0.25417303680368
 6 -4.52385949244924 -2.02744116591659  0.49932020902090
 6 -4.52556437183718  2.80985261836184  1.14017689928993
 6 -8.99153185788579  3.17810183428343 -0.42240174187419
 6 -9.31194929252925 -1.77418044764476 -0.61295135383538
 7 -4.65923099499950  0.48334773247325  0.52010104220422
 6 -3.91097836343634 -0.70016972377238  0.68865942134213
 6 -2.46348976757676 -0.35112687188719  1.04256631893189
 6 -2.57024699049905  1.09072922172217  1.51176333883388
 6 -3.83638990189019  1.46508659385939  0.92766754145415
 6 -2.41597788348835  1.27186898279828  2.96507106990699
 6 -1.54687343574357 -0.77435999939994 -0.18173684738474
 6 -0.03981209950995 -0.77933964056406  0.39496857035704
 6  0.81799287848785 -1.09358659555956 -0.89962813661366
 8  0.64226429452945 -0.73159577207721 -2.06651764196420
 8  1.76942722932293 -1.98394869346935 -0.43356827932793
 7 -6.77172891509151  2.44914528452845  0.22588633653365
 6 -5.56470703160316  3.28043668686869  0.69155545174517
 6 -5.92039625482548  4.70752043684368  0.57510237883788
 6 -7.19743045644565  4.85537162766277  0.09075565886589
 6 -7.73651535543554  3.57118592699270 -0.09171434003400
 6 -5.08828374867487  5.75874330483048  0.87537520552055
 6 -7.99098065936594  6.08548546864686 -0.15462593889389
 8 -7.66018993519352  7.10259187578758  0.33468132493249
 7 -8.82119567306731  0.73781464066407 -0.34774742384238
 6 -9.51135480788079  1.88169290459046 -0.37439849214922
 6 -10.90510714101410  1.48486835793579 -0.74110989218922
 6 -10.98004236173617  0.03425432983298 -1.01081193669367
 6 -9.58381004430443 -0.44452261546155 -0.62300437713771
 6 -11.96621339663966  2.48527472057206 -0.77842249304930
 6 -12.12133525402540 -0.91149471177118 -1.28125625932593
 6 -12.13216007810781 -1.17404957015702 -2.89137193189319
 7 -6.84608109100910 -1.44218677997800  0.08197555305531
 6 -8.06273893549355 -2.23104310101010 -0.31659485748575
 6 -7.49747733283328 -3.58204552695270 -0.30477148724872
 6 -6.08711433263326 -3.63618277917792 -0.11095935653565
 6 -5.89801609030903 -2.26267508200820  0.28260444474447
 6 -8.17388591209121 -4.85889326712671 -0.56356917281728
 6 -4.93036924142414 -4.38154395249525  0.05707373307331
 8 -4.66897864656466 -5.47456799509951 -0.32669216261626
 6 -3.75049877527753 -3.39561012021202  0.64608925612561
 6 -3.25100861176118 -3.70816699219922  1.96752646564656
 8 -3.92554779487949 -3.88600533533353  3.04910358015802
 8 -1.81281295619562 -3.61741804710471  1.91556149534954
 6 -0.75948447054705 -4.02718780888089  3.06759118431843
 6  2.94278617141714 -2.20804598149815 -1.57603884798480
 6  3.83860762816282 -1.17107410851085 -1.06182171447145
 6  4.89658041344134 -0.55064193559356 -1.88708491009101
 6  4.92680666446645 -0.82995613031303 -3.41287827002700
 6  5.87233105770577  0.28247059415942 -1.21798835733573
 6  7.30419911391139 -0.49076485858586 -1.23640037733773
 6  8.49339189948995  0.42215785038504 -0.56147462796280
 6  9.70345343474347 -0.44508142844284 -0.06398470417042
 6  9.36173368966897 -1.23095190989099  1.39145351415142
 6  10.99794212421242  0.48661351555156  0.16890172857286
 6  12.42744801530153 -0.23286197899790  0.23502181338134
 6  13.51915345794579  0.73379065376538  0.21237413581358
 6  14.87277361256126  0.06385966406641  0.45244990709071
 6  15.02816780488049 -0.48767104760476  1.79822974697470
 6  16.06928655705570  1.15718062006201  0.24878808410841
 6  17.40903038113811  0.64032925732573  0.07831095719572
 6  18.62073162056206  1.49619681088109 -0.01577172397240
 6  19.85681788288829  1.02953144794479 -0.39662974667467
 6  19.81197099839984  0.20929635993599 -1.60548633983398
 6  20.80813798269827  2.26985840384038 -0.21219631553155
 1 -3.60515115341534  3.56488773977398  1.41281068276828
 1 -9.55314929742974  4.15912499759976 -0.46174980888089
 1 -9.96234872647265 -2.73771417071707 -1.08021084698470
 1 -2.49206172297230 -1.02461007880788  1.82770281858186
 1 -1.70568990759076  1.62166264246425  0.97463391679168
 1 -1.46563794749475  0.89422773717372  3.30568127922792
 1 -2.32710088398840  2.54661323772377  2.85829194699470
 1 -3.31775410791079  1.04316220152015  3.58433430253025
 1 -1.87356637693769 -1.66729800280028 -0.32123991079108
 1 -1.77290245924592 -0.16090756365637 -0.82385217601760
 1  0.59308730703070 -0.13612504580458  0.88113397859786
 1 -0.11722544234423 -1.53432976677668  1.19338957105711
 1 -4.27706223662366  6.12894072197220 -0.22433747604760
 1 -5.53934421502150  6.86612928882888  1.26670357645765
 1 -4.24224525272527  5.66202516351635  1.85762353465347
 1 -8.98530154425443  6.18784389358936 -0.95578195399540
 1 -11.91266081968197 -2.25529639713971 -0.97752217941794
 1 -12.93416963196320 -0.56583018321832 -0.74220185658566
 1 -13.16988481158116 -1.02651476687669 -3.12405952305231
 1 -11.47183414721472 -0.21374395289529 -2.99445161466147
 1 -11.67401422582258 -2.11632494949495 -3.06242284968497
 1 -8.37754693799380 -5.38697525312531 -1.77373960196020
 1 -7.64274948954895 -5.90461047364736  0.32850319841984
 1 -9.26942422242224 -4.99382134333433 -0.06449183968397
 1 -2.91584116551655 -3.14151787668767 -0.11837014381438
 1  3.24293590899090 -3.11390866466647 -1.26404212131213
 1  2.47691197999800 -2.12838875387539 -2.51626186148615
 1  3.87374470217022 -1.04814756315632 -0.10641704010401
 1  3.92531558855886 -0.82984645714572 -3.76856697169717
 1  5.70943452185219 -0.71684035943594 -3.81097232113211
 1  5.17164099149915 -2.04817743204320 -3.33698788258826
 1  6.08966938883888  1.30460579797980 -1.92820543774377
 1  5.74670978037804  0.50300584838484 -0.45744000740074
 1  7.01231241014101 -1.42014021112111 -0.73487176557656
 1  7.52351775017502 -0.82817160746075 -2.23422289818982
 1  8.93732586398640  1.25316591139114 -1.47890067536754
 1  7.90748924702470  0.96068125632563  0.08088379677968
 1  10.02266471357136 -1.29544698839884 -1.39511666926693
 1  8.30865310961096 -1.91887070277028  1.32548090889089
 1  10.29991606100610 -2.32463634483448  1.33704559595960
 1  9.49798300990099 -0.35447667006701  2.19407071217122
 1  10.87984162196220  1.33096585648565 -0.73244041564156
 1  10.64082382898290  1.17713658925893  1.23257713801380
 1  12.53641118331833 -0.76488892839284  1.33795747904790
 1  12.36504865886589 -0.76034425502550 -0.48045104260426
 1  13.21023589358936  1.47589713471347 -0.90471937653765
 1  13.26149819461946  1.45655990729073  0.86194198359836
 1  15.27231865766577 -0.88231574757476 -0.49630782198220
 1  14.97396729662966  0.37747814331433  2.71671444444444
 1  14.37276454995500 -1.37640531243124  1.69135663376338
 1  16.06618365146515 -0.75606919001900  2.29412589028903
 1  15.84150528542854  2.11861185458546 -0.70859083378338
 1  15.65942997559756  1.99496903240324  1.16690501370137
 1  17.69837115221522  0.01378454905491  0.91899208590859
 1  17.13450097429743 -0.05666749754975 -0.85191656905691
 1  18.45774078117812  2.37867441524152 -0.63601658995900
 1  18.64528452455246  2.03579748664866  0.77791446194619
 1  20.20682324352435  0.10570341654165  0.24015736653665
 1  19.71837015501550  1.00707575717572 -2.43872599779978
 1  20.77307159715972 -0.37613941574157 -1.29935406880688
 1  19.22469519651965 -0.61516923532353 -1.75995407010701
 1  20.89090586918692  2.43542312141214  1.07636839043904
 1  21.70413815411541  1.82198878157816 -1.00877359235924
 1  20.51174782768277  3.13611109830983 -0.79489428572857
 1  0.63429780468047 -3.97761051045104  2.72891123912391
 1 -1.07659734073407 -5.47778505220522  3.17759839643964
 1 -1.26094010731073 -3.23715219231923  3.89999415261526
 8 -11.79167754205421  3.69013381258126 -0.76276809050905
 1 -13.21556206770677  1.94938617871787 -0.43139374437444

