%nproc=4
%Mem=4GB
# td=(NStates=1) iop(3/107=0140000000,3/108=0140000000) iop(3/107=0140000000,3/108=0140000000) CAM-B3LYP/6-31G(d,p) 

TD

0 1
12 -5.64361586818682  1.10777565186519  0.23617222242224
 6 -5.03658404560456 -2.20176864016402 -0.29278614541454
 6 -3.39835862496250  1.23798408320832  2.75198057135714
 6 -6.14409320502050  4.50226349054905  0.58166837563756
 6 -7.90983675077508  1.19957080778078 -2.36114378787879
 7 -4.42860711401140 -0.30042823462346  1.04390572937294
 6 -4.29044257175718 -1.63423712531253  0.67860020962096
 6 -3.20314343884388 -2.41549485228523  1.51879624332433
 6 -2.86878004900490 -1.21413430433043  2.55507206330633
 6 -3.67264469186919  0.00803817611761  2.11864644984498
 6 -3.37848088748875 -1.66521996339634  3.98298099749975
 6 -1.99104429762976 -2.75801321062106  0.68177348284828
 6 -0.89496113961396 -3.56639422002200  1.48696228422842
 6  0.22095719621962 -3.90004384508451  0.53399159385939
 8  0.44878494279428 -3.46551386498650 -0.57437367156716
 8  0.98029487518752 -4.80949056635664  1.15626023332333
 7 -4.85070588688869  2.58399777667767  1.50878110981098
 6 -3.94019610941094  2.48571599329933  2.43642424572457
 6 -3.67400690439044  3.66014451665167  3.13549410561056
 6 -4.62365291799180  4.59662119041904  2.55966523782378
 6 -5.25762186638664  3.95183327852785  1.49815590789079
 6 -2.82963832693269  3.79249662546255  4.33193738313831
 6 -4.69309584018402  5.99840726122612  2.92095159996000
 8 -4.10928097609761  6.55363325132513  3.98390229012901
 7 -6.93096689658966  2.61234112991299 -0.65853751005101
 6 -6.93942665746575  3.91478109530953 -0.45260694939494
 6 -7.94983016941694  4.57070379517952 -1.26038014751475
 6 -8.46658611191119  3.62143907380738 -2.06466541094109
 6 -7.71771066156616  2.45869187798780 -1.71905785228523
 6 -8.27612060296030  5.91551146054606 -1.24156366516652
 6 -9.50828519181918  3.78981938013801 -3.20395502830283
 6 -8.91331278497850  4.24160230643064 -4.53021942594259
 7 -6.30910932993299 -0.12419743744374 -1.10930602260226
 6 -7.29584911451145 -0.08064413301330 -2.10479469016902
 6 -7.51355886308631 -1.28829053265327 -2.67589011161116
 6 -6.75205475427543 -2.22196176797680 -2.00153631933193
 6 -5.89592800820082 -1.41025459055906 -1.12553868426843
 6 -8.57748320612061 -1.69490961696170 -3.80636753295330
 6 -6.35641930903090 -3.55461104500450 -1.98103165826583
 8 -6.74647904340434 -4.54539223762376 -2.54680094519452
 6 -5.13875243734373 -3.56988504110411 -0.84039635943594
 6 -5.22646012341234 -4.65850129122912  0.15558923072307
 8 -5.53911968356836 -4.50041905000500  1.32041840524052
 8 -4.88844854305431 -5.84130532693269 -0.33301644624462
 6 -5.22745030923092 -6.88805065836584  0.43812564236424
 6  2.26080705390539 -5.09930105030503  0.55130908530853
 6  3.34757929292929 -4.06825698659866  0.88835673547355
 6  3.91529091929193 -3.11608447854786  0.15112874787479
 6  3.67845218411841 -2.95090003130313 -1.30327983248325
 6  5.10452687848785 -2.35933098069807  0.63802760156016
 6  6.41980685198520 -2.59275220042004  0.05706717411741
 6  7.69994531813181 -1.77014637013701  0.64759044954495
 6  8.94169499079908 -1.87653248684868 -0.16125390789079
 6  9.57147352905291 -3.26674731513151 -0.03290674837484
 6  9.92865344444444 -0.83147338473847  0.38659117461746
 6  11.27752505490549 -0.87085669256926 -0.29310807700770
 6  12.23350103870387  0.18126275377538  0.31921876947695
 6  13.56567902370237  0.39747461736174 -0.47441220442044
 6  14.51177947694769 -0.77113651625163 -0.35460961186119
 6  14.28714465406541  1.74733090469047 -0.12025127992799
 6  15.51805599599960  2.12535056325633 -0.99839483448345
 6  16.09077166156615  3.49851460426043 -0.64280489368937
 6  17.37885313441344  3.88103594519452 -1.28631256645665
 6  17.40726331603160  3.91258615031503 -2.80799302350235
 6  17.93473287938794  5.17095236053605 -0.81764122302230
 1 -2.56869259205921  1.35509978537854  3.35089555795580
 1 -6.16617459625963  5.51175655605561  0.75844483618362
 1 -8.89127953515352  1.21846214911491 -3.00674615341534
 1 -3.71449251405141 -3.06832214761476  2.12409046984698
 1 -1.70107723162316 -1.09976763836384  2.52147342344234
 1 -3.08022780188019 -2.73291645284528  4.12021556555656
 1 -2.97344813751375 -0.93858376277628  4.63120515031503
 1 -4.35573808550855 -1.68062714361436  4.13024697519752
 1 -2.21259657335734 -3.56617613491349 -0.24540516431643
 1 -1.48075590799080 -1.92118123442344  0.24571269286929
 1 -0.34512994649465 -3.07557885348535  2.20181440014001
 1 -1.32965768736874 -4.46432356355636  1.95438723672367
 1 -1.80158027182718  3.87913743814381  3.96011192089209
 1 -2.87682867296730  4.91367857385739  4.65585184288429
 1 -2.87974096909691  2.92462345984598  5.19283428942894
 1 -5.30140320422042  6.64597879227923  2.20402572397240
 1 -10.02942207570757  2.86499715681568 -3.22230548224822
 1 -10.23040383828383  4.54253809790979 -2.87651794249425
 1 -9.79918971877188  4.55856427042704 -5.25654085638564
 1 -8.28987849724973  5.19265901130113 -4.32481243624362
 1 -8.24747459645964  3.42453181198120 -4.99198912371237
 1 -8.28429601920192 -1.15099564246425 -4.72976397469747
 1 -8.47407839083908 -2.76196960206021 -3.92026466346635
 1 -9.57563764326433 -1.50697752115212 -3.62293920062006
 1 -4.33945130253025 -3.77559238583858 -1.47756104300430
 1  2.54712584558456 -6.07710565356536  1.01741769866987
 1  2.08970971437144 -5.30110708680868 -0.58558200780078
 1  3.44172629492949 -4.13083236503650  1.98472347994799
 1  2.66599158585859 -3.17392301340134 -1.79481202220222
 1  3.65624023732373 -1.99126268556856 -1.40519298979898
 1  4.67774994899490 -3.40291402060206 -1.78881780768077
 1  4.93138317921792 -1.07889431343134  0.42804468796880
 1  4.86777530483048 -2.30716234863486  1.78336321662166
 1  6.60944847154715 -3.66305949804981  0.56319420342034
 1  6.31097125752575 -2.70117772677268 -0.92923351885188
 1  7.58257718901890 -0.46103942904290  0.54505175067507
 1  7.69633173607361 -1.98162474557456  1.60988537383738
 1  8.73433754305431 -1.64382265746575 -1.19067240534053
 1  8.83736825552555 -4.00804957635764 -0.20353414581458
 1  10.51174051485149 -3.40987518961896 -0.59894000750075
 1  9.93594265566557 -3.39566065756576  1.02576301900190
 1  9.46616576717672 -0.10360463426343  0.22730809460946
 1  9.98157825532553 -0.96004253815381  1.38975851585159
 1  11.63925906720672 -1.90368039993999  0.03209883668367
 1  11.20389647634764 -0.73855676057606 -1.38358969256926
 1  11.62777381088109  1.22678710791079  0.45738618341834
 1  12.58550337363736  0.03105429682968  1.42867114731473
 1  12.97178397909791  0.40938537083708 -1.46908914761476
 1  14.85962530083008 -0.85552376507651  0.82953863386339
 1  14.14016958795880 -1.73588260456046 -0.85574189568957
 1  15.36224721312131 -0.38798199639964 -0.96969386188619
 1  13.45807400160016  2.54571919101910 -0.02572436013601
 1  14.73398009830983  1.58939922912291  0.87657487138714
 1  16.41446310211021  1.33002161486149 -0.95645213591359
 1  14.95993157655766  2.13576748954895 -2.09373075277528
 1  15.26588799339934  4.14432981098110 -0.83469546764676
 1  16.09550232033203  3.42938958035804  0.38541844224422
 1  18.16114979637964  3.35299679087909 -1.30074915451545
 1  16.74139485988599  4.75702223112311 -3.22815517531753
 1  18.52086801030103  3.85377489078908 -3.24309891499150
 1  17.04810501070107  2.85922699269927 -3.12589062366237
 1  18.12685873307331  5.20142135963596  0.43038470267027
 1  19.02681020332033  5.05575972817282 -1.21522843724372
 1  17.31746329722972  6.12562206530653 -0.91551561286129
 1 -4.55401070247025 -7.86241567466747  0.14798126042604
 1 -6.30991542184218 -7.27834492109211  0.24332784028403
 1 -4.91056922552255 -6.38836041164116  1.43403786038604
 8 -7.79170676227623  6.80323682448245 -0.49016680068007
 1 -9.03353165026503  6.22260790569057 -1.67001268406841

