%nproc=4
%Mem=2GB
# td=(NStates=1) iop(3/107=0140000000,3/108=0140000000) iop(3/107=0140000000,3/108=0140000000) CAM-B3LYP/6-31G(d,p) 

TD

0 1
12 -6.77078965106511  0.58467761186119  0.16190380988099
 6 -4.78719582608261 -1.95908433023302  0.49058933593359
 6 -4.18315013041304  2.76570820392039  0.75317819941994
 6 -9.12119482418242  3.25138916301630 -0.16214571627163
 6 -9.45037313491349 -1.77669069866987 -0.71930198889889
 7 -4.75818088998900  0.36090548824882  0.54259329142914
 6 -4.03451071667167 -0.86563627042704  0.51598215361536
 6 -2.47025044364436 -0.56038779797980  0.79799186148615
 6 -2.32134210001000  0.92146229502950  1.14160632313231
 6 -3.85873213611361  1.47768785398540  0.80912568726873
 6 -1.95379166486649  1.08463025892589  2.55327989078908
 6 -1.66208495689569 -1.15090765416542 -0.27436611031103
 6 -0.15432355065507 -1.31899360596060  0.08767784128413
 6  0.83122420162016 -1.32460969786979 -0.99901807560756
 8  0.96766683478348 -1.03952656515652 -2.13419440964096
 8  1.85549583618362 -1.98392869146915 -0.40325524802480
 7 -6.50153189538954  2.55449581958196  0.37852160006001
 6 -5.46344690559056  3.23912255545555  0.54886118231823
 6 -5.73420763596360  4.80836052085209  0.65261012961296
 6 -7.15412612601260  4.83129922042204  0.24455103840384
 6 -7.78466016991699  3.41890069846985  0.17112194359436
 6 -4.83676859715972  5.84616204670467  0.98548621662166
 6 -7.80110167146715  5.98464538463846 -0.01129160546055
 8 -7.47708162436244  7.21404302090209  0.12579043584358
 7 -8.74663821732173  0.67280814001400 -0.33583623272327
 6 -9.53531720412041  1.78402313761376 -0.29989104140414
 6 -10.97122375267527  1.54443431453145 -0.59280506170617
 6 -11.01021537903790  0.17570847524752 -0.75382623812381
 6 -9.65561722502250 -0.35945410861086 -0.68995107180718
 6 -11.98382515781578  2.67733392649265 -0.75196984778478
 6 -12.23033615411541 -0.44141770407041 -1.20622875657566
 6 -12.57161402350235 -0.87331949714972 -2.59145193989399
 7 -7.05919240214021 -1.42094465576558 -0.04850749524952
 6 -8.24366702830283 -2.19658965566557 -0.45354855285529
 6 -7.81025861096110 -3.66003332573257 -0.40845185528553
 6 -6.38736435763576 -3.61845100600060 -0.00722898349835
 6 -6.11378766746675 -2.19813862836284  0.16974315861586
 6 -8.73033155665567 -4.93073045084508 -0.80480329622962
 6 -5.19194539903990 -4.46462226032603  0.14932295799580
 8 -5.00939268796880 -5.63275381368137  0.18888939553955
 6 -4.10308403380338 -3.42560311951195  0.55367001420142
 6 -3.36112962386239 -3.85615179067907  1.89603931693169
 8 -4.03801904200420 -3.99426616141614  2.89187785758576
 8 -1.86944861976198 -3.74556086138614  1.83450338953895
 6 -1.26190471257126 -4.01174626472647  3.09257368256826
 6  3.02475436823682 -2.43521869876988 -1.30707195129513
 6  4.03440720812081 -1.41353835493549 -0.94163969626963
 6  5.14509526492649 -0.98264513591359 -1.59124532613261
 6  5.08854283808381 -1.42527566226623 -3.13063004520452
 6  5.96823064766477 -0.01932958585859 -1.14628118661866
 6  7.52365105910591 -0.71173695579558 -0.69620635793579
 6  8.53504606490649  0.44680031463146 -0.36272475297530
 6  9.83730682008201 -0.15182210251025  0.06834852915292
 6  9.59133664996500 -0.74544335903590  1.38072244104410
 6  11.09448177817782  0.82230708490849  0.00402524092409
 6  12.38958422892289  0.15611691889189 -0.10662235103510
 6  13.56835837843784  1.08993626832683  0.11077397579758
 6  14.97125346054606  0.37413069116912  0.38094275637564
 6  15.03394838293829 -0.22085436593659  1.81987191119112
 6  16.18979860826083  1.41930683268327  0.40596380168017
 6  17.34951442954295  0.85962118651865  0.04956808290829
 6  18.42947249464947  1.81786897809781 -0.31657180398040
 6  20.04276647774778  1.09774826962696 -0.07207729142914
 6  20.36577637893789 -0.03055762546255 -1.35669146034603
 6  21.09939710861086  2.24718613661366 -0.33096819271927
 1 -3.33839447774777  3.35725697669767  0.68689809150915
 1 -9.63623760626063  3.98506759185919 -0.61292492639264
 1 -10.34401689328933 -2.51641204050405 -1.02707553345335
 1 -2.16697921472147 -1.13205082288229  1.57434748304830
 1 -1.75925526412641  1.41602207840784  0.46515296869687
 1 -0.69749113281328  0.91985029942994  2.77678838993899
 1 -2.11375954985499  1.86896547294729  2.97231334913491
 1 -2.50079241174117  0.27126501180118  3.34306017511751
 1 -1.97137615791579 -2.14644591759176 -0.64387217401740
 1 -1.49560472947295 -0.36179765266527 -1.31518130893089
 1  0.10271827012701 -0.48831026432643  0.76549241444144
 1  0.24595087528753 -2.25557189098910  0.82762299439944
 1 -3.83786831723172  5.17855568346835  0.54192915061506
 1 -4.99467974857486  6.59914259015902  0.20512741884188
 1 -4.98924995319532  5.83725268626863  1.94897266956696
 1 -8.87603061716172  6.03975908510851 -0.37369374517452
 1 -12.51426097969797 -1.42248311581158 -0.41815624282428
 1 -12.98080429542954  0.23471987178718 -0.70746838323832
 1 -13.94963278637864 -0.97218933433343 -2.86220333743374
 1 -12.53275023882388 -0.01198377687769 -3.41576374587459
 1 -11.82914973937394 -2.01841515851585 -3.24178078547855
 1 -9.31227041034103 -4.54307086268627 -1.87248947694770
 1 -8.38606382098210 -5.63498351095109 -1.15543519541954
 1 -9.61314859485949 -5.36045800700070  0.03092770227023
 1 -3.29720930233023 -3.69681340624062 -0.40380868766877
 1  3.29273088848885 -3.60407768156816 -1.03204892199220
 1  2.86370065886589 -2.21903781878188 -2.30778101340134
 1  3.41567889558956 -0.71458420682068  0.22390599219922
 1  4.23854691169117 -1.17494096659666 -3.54819493449345
 1  6.22400597899790 -0.90631930733073 -3.83436466036604
 1  5.20849467686769 -2.26445906020602 -3.22516670047005
 1  6.06673709560956  0.83198853625363 -2.23849646684668
 1  5.70366547594759  0.90430597839784 -0.11185544894489
 1  7.25364654355436 -1.71889008610861  0.14380610221022
 1  8.26403180158016 -1.45600439073907 -1.74384386028603
 1  8.32004413581358  1.15648624342434 -1.30626341164116
 1  8.30682918101810  1.07290247844784  0.64440014841484
 1  10.15398784588459 -0.89621706540654 -0.71524868246825
 1  8.68204044834484 -1.39730854655466  1.12441080188019
 1  10.42426849624962 -1.48037191839184  1.68898078947895
 1  9.35461867346735 -0.21466268866887  2.17824913001300
 1  11.17685132293229  1.45254801470147 -0.85802297389739
 1  10.92786253285328  1.70662953855386  0.84935881618162
 1  12.36622416461646 -0.61051349084908  0.96264994829483
 1  12.61154330833083 -0.76950517111711 -1.09049204670467
 1  13.91946681668167  1.62209175417542 -1.05638454305431
 1  13.47643968876888  1.77951220252025  0.63111890129013
 1  15.18458988478848 -0.26956447244724 -0.71150934213421
 1  15.04426432633263  0.60862125762576  2.40471324432443
 1  14.15257253075307 -1.16028370027003  2.09752725082508
 1  15.84832186528653 -0.52118570167017  1.59936641434143
 1  15.99656079097910  2.14021401480148 -0.23913388808881
 1  16.20190422302230  1.95666520202020  0.97310563376338
 1  17.53031434653465  0.48548171877188  1.22073225992599
 1  17.29612713691369  0.26937510671067 -0.77305868326833
 1  18.65889089618962  2.12783933173317 -1.21155414371437
 1  18.36604660076008  2.52656656355636  0.26143281378138
 1  20.26393895509551  0.45688853505350  0.78206155695570
 1  19.87278559655966  0.26066111571157 -2.26018814401440
 1  21.45917020702070 -0.44524632643264 -1.37689182258226
 1  19.62672539953995 -0.83764148254825 -1.21203927862786
 1  20.85822260086008  2.95987556665667  0.85424617821782
 1  22.11589933023302  1.72904948764876 -0.29863257825783
 1  20.99500615351535  2.88384587178718 -1.52358715501550
 1 -0.08045367046705 -4.12126487588759  2.68067641564156
 1 -1.42423210421042 -4.68570584428443  3.25540617721772
 1 -1.23191720502050 -3.05562403950395  3.86894104730473
 8 -11.97710608490849  3.95238003720372 -0.76272808650865
 1 -12.95564607610761  2.13757499759976 -1.10208081308131

