%nproc=4
%Mem=2GB
# td=(NStates=1) iop(3/107=0140000000,3/108=0140000000) iop(3/107=0140000000,3/108=0140000000) CAM-B3LYP/6-31G(d,p) 

TD

0 1
12 -6.82756532863286  0.56694583868387  0.14802242174217
 6 -4.51226833333333 -2.03542196399640  0.38299857685769
 6 -4.07932974837484  2.78913054615462  0.85994887648765
 6 -8.96681938663867  3.21846587068707 -0.22560206190619
 6 -9.31955005260526 -1.76617964756476 -0.74396445514551
 7 -4.78818389028903  0.35350474817482  0.55001403350335
 6 -3.90251751735174 -0.83852355915592  0.63563411881188
 6 -2.56593001160116 -0.51415317451745  1.13566562886289
 6 -2.47163712951295  1.06799694849485  1.48731089358936
 6 -3.82026828972897  1.54015410061006  0.89944471917192
 6 -2.39523580928093  1.19547134303430  2.85047961076108
 6 -1.52777152555256 -0.85091765516552 -0.06538521222122
 6 -0.21967008530853 -1.07644935153515  0.53748282178218
 6  0.78203928312831 -1.29153639053905 -0.63731190499050
 8  0.78718878697870 -0.76379899239924 -1.62909389958996
 8  1.88960924752475 -1.95083538213821 -0.27895281778178
 7 -6.62886462866287  2.58424879487949  0.36253000090009
 6 -5.49398995989599  3.42314095729573  0.73331962816282
 6 -5.69887410261026  4.73547323212321  0.73430829942994
 6 -7.14033474687469  4.77658374887489  0.25745232853285
 6 -7.76490819471947  3.43375218361836  0.19284411581158
 6 -4.62119704000400  5.76260369086909  0.94562223022302
 6 -7.87686924822482  6.13251017111711  0.09653917761776
 8 -7.40180409660966  7.39765138173817  0.24027188398840
 7 -8.81633518701870  0.51622248144815 -0.20340298939894
 6 -9.55514918731873  1.80802553785379 -0.33663471577158
 6 -10.87367399769977  1.57828769986999 -0.86470225142514
 6 -11.04032839033903  0.12021292569257 -0.83154400990099
 6 -9.68009967326733 -0.48723688688869 -0.67765984268427
 6 -11.81479825512551  2.60472666576658 -1.14976962776278
 6 -12.06726984748475 -0.52414597689769 -1.29284741844184
 6 -11.90310717281728 -0.99447161236124 -2.71111390609061
 7 -6.97302378527853 -1.53605616691669  0.07752510801080
 6 -8.07464012561256 -2.39185918261826 -0.43058625662566
 6 -7.66849443454345 -3.75335265766577 -0.41889289938994
 6 -6.27496311751175 -3.61005016591659 -0.13242150275028
 6 -6.01174746344634 -2.26516533103310  0.18870505480548
 6 -8.54129265276528 -4.87017439523952 -0.64728754465447
 6 -5.13326953145315 -4.44059985808581  0.06256428212821
 8 -4.70854260296030 -5.63107364566457 -0.14867436083608
 6 -3.76860058545855 -3.44186474567457  0.39347399459946
 6 -3.19406291719172 -3.74947112261226  1.81030074307431
 8 -3.81888712881288 -4.09909664446445  2.83966263606361
 8 -1.93538521342134 -3.74151045634563  1.58305824502450
 6 -1.25885440754075 -4.16522161226123  2.85337976317632
 6  2.82203409620962 -2.26378155505551 -1.35618686278628
 6  3.92197596499650 -1.35671267236724 -1.02214774707471
 6  5.14205496089609 -0.93790066146615 -1.73523972557256
 6  5.27229121292129 -1.64776791149115 -2.96371335353535
 6  6.05202902750275 -0.00672832573257 -1.18144470297030
 6  7.33029172317232 -0.42182796489649 -0.98718545584558
 6  8.35687824812481  0.56237187178718 -0.28723720422042
 6  9.68416150555056 -0.00903782408241  0.22459415371537
 6  9.43252076837684 -0.72098091279128  1.51908627742774
 6  10.81824415441544  1.03173802800280  0.12594743314331
 6  12.11722699319932  0.21587289448945  0.29760807200720
 6  13.36328787138714  1.11039831453145  0.28281117951795
 6  14.64258059325933  0.34617789588959  0.34050871297130
 6  14.81041602970297 -0.15317759825983  1.71372129612961
 6  15.81804143254326  1.29342424442444 -0.07847464216422
 6  17.31635111321132  0.59263448784879 -0.03610048394839
 6  18.43452299969997  1.72828001920192 -0.25976612341234
 6  19.87052925402540  0.94957345214521 -0.44890497419742
 6  20.03315311661166 -0.10276484618462 -1.78506429762976
 6  21.12492966186619  1.82460387838784 -0.53500859675968
 1 -3.40333097139714  3.57705895689569  1.02708210991099
 1 -9.54882886538654  4.16163524862486 -0.31192482638264
 1 -10.00553304490449 -2.28882928222822 -1.39542236813681
 1 -2.33804632143214 -1.17167478527853  2.01102115041504
 1 -1.64428376697670  1.53026350255025  1.08476492989299
 1 -1.33896528022802  0.89673798819882  2.96095680678068
 1 -2.12259043294329  2.27079565596560  3.01103722152215
 1 -3.48636096859686  0.85531341664166  3.47374324342434
 1 -1.94594361466147 -1.72912418541854 -0.73126091289129
 1 -1.87590275927593  0.27677620472047 -0.77227701850185
 1  0.12334033233323 -0.15189662296230  1.20115598079808
 1 -0.47647136693669 -1.79008534233423  1.12274250635064
 1 -3.66707123752375  5.53301112901290  0.07977293499350
 1 -5.32824310491049  6.91641431733173  0.86207311341134
 1 -4.32439346754676  5.76219518051805  2.17659543184318
 1 -9.23567658175818  5.82485759495950 -0.15878225402540
 1 -12.49172872647265 -1.20346121362136 -0.90927535473547
 1 -13.17791400640064  0.15228162796280 -1.30519815621562
 1 -12.72552037513752 -1.21231334673467 -3.43466058315832
 1 -11.74625158895890 -0.26216879537954 -3.46748891839184
 1 -11.07772459685969 -2.02915623262326 -3.07017362476248
 1 -8.82906208950895 -4.73789034463446 -1.77100932893289
 1 -7.59393460806081 -5.79116912951295 -0.89739939183918
 1 -9.34970225022502 -5.23079504070407  0.07175178467847
 1 -2.75258483988399 -3.33952767766777 -0.24669297609761
 1  2.96250786618662 -3.32388966276628 -1.00049576667667
 1  2.47748203700370 -2.15427134213421 -2.53779401470147
 1  3.99638696639664 -1.18653140154015 -0.20558695709571
 1  4.80489354635464 -0.87688116061606 -3.62873298829883
 1  6.26532011041104 -1.53518219361936 -3.20179140304030
 1  5.07391121852185 -2.80736335063506 -2.78252243604360
 1  6.09130955285529  1.09661499889989 -1.70567318451845
 1  5.87688279767977  0.42197774557456 -0.31077534093409
 1  7.14915609450945 -1.37618581568157  0.01801352295230
 1  7.79655505390539 -0.82491128142814 -1.82642211811181
 1  8.60811294269427  1.03681427622762 -0.93557634293429
 1  7.85208370647065  1.17386257445745  0.73208891729173
 1  9.97957040414041 -0.82372981668167 -0.61382854045405
 1  8.61877412171217 -1.64905372107211  1.73704206500650
 1  10.34973104250425 -0.83709759095910  1.71413330473047
 1  9.20217342894290 -0.14907613001300  2.01605291039104
 1  11.12892653045304  1.86696945684568 -0.48047521912191
 1  10.99539928652865  1.66302517811781  1.27159103940394
 1  12.13669121132113 -0.35788822832283  1.22809649294929
 1  12.23199535353535 -0.40294851545154 -0.52255525302530
 1  13.40131500150015  1.67328687368737 -0.77768667326733
 1  13.44986703150315  1.67692194349435  1.02588837823782
 1  14.45694712051205 -0.46011352735273 -0.25297348854886
 1  14.81290119001900  0.45229562506251  2.49617239023902
 1  13.83990126362636 -0.61795946784678  1.60254775287529
 1  15.61612864596460 -0.44424800790079  1.58235471317132
 1  15.27949908480848  1.90583057645765 -0.83770374507451
 1  15.56338037063706  2.08101763726373  0.54045236843684
 1  17.23176449154915 -0.08601543094309  1.14201438813881
 1  17.30600812501250 -0.08038986978698 -1.01695307270727
 1  18.41767677477748  2.57731427922792 -1.31697468576858
 1  18.39860985708571  2.36011991889189  0.76004267476748
 1  19.84802736393640  0.02382522872287  0.25903925472547
 1  19.92115043304330  0.21135618521852 -2.87967009220922
 1  20.98756304630463 -0.29167096889689 -1.81775590899090
 1  19.25842856985699 -0.83878159655966 -2.05299337403740
 1  21.12739951855185  2.27432701180118  0.39013976757676
 1  22.14691243154316  1.24574115681568 -0.94428714371437
 1  21.04723137603760  2.53051053825383 -1.34212900920092
 1 -0.39673529862986 -4.48436118551855  2.56848519651965
 1 -1.77922760376038 -4.91496877057706  3.43924456105611
 1 -0.97033104640464 -3.24931340844084  3.29254340754075
 8 -11.59838821312131  3.72793759295930 -1.19386119981998
 1 -13.02120263176318  2.13196443654365 -1.69750035503550

