%nproc=4
%Mem=2GB
# td=(NStates=1) iop(3/107=0140000000,3/108=0140000000) iop(3/107=0140000000,3/108=0140000000) CAM-B3LYP/6-31G(d,p) 

TD

0 1
12 -6.65318789088909  0.64635377947795  0.05462308180818
 6 -4.62206931343134 -2.13436185798580  0.48721899889989
 6 -3.96920873627363  2.76793842694269  0.78294117571757
 6 -8.84442714741474  3.28287231133113 -0.19856935863586
 6 -9.29391748934894 -1.56485951555156 -0.73272333103310
 7 -4.69131420332033  0.45991538923892  0.37157618971897
 6 -4.03474073967397 -0.77707741454145  0.61577213261326
 6 -2.57058047664766 -0.60165192439244  1.09905196749675
 6 -2.38623858965897  1.00521066986699  1.26922908540854
 6 -3.72706896979698  1.43008309350935  0.88476325102510
 6 -1.96188247394739  1.13316511241124  2.75654021682168
 6 -1.56255500390039 -1.14305686908691  0.01398272457246
 6 -0.15591370967097 -1.49410111671167  0.56408548204820
 6  0.85289636883688 -1.61965920282028 -0.55255342914291
 8  1.06224629272927 -1.14419703220322 -1.62030302050205
 8  1.87547783438344 -2.68381868046805 -0.15359028152815
 7 -6.57443918611861  2.74246461646165  0.34322807070707
 6 -5.37411797269727  3.35896453965397  0.55503179937994
 6 -5.56707092229223  4.90467015181518  0.57788265686569
 6 -6.93101381478148  5.03379947044705  0.16218280158016
 6 -7.55247695159516  3.68732754115412  0.12176700810081
 6 -4.65458037833783  5.93622105260526  1.04129179717972
 6 -7.66047760906091  6.30939785988599  0.19072859655966
 8 -7.28030194639464  7.26080769736974  0.61714957175718
 7 -8.71689524302430  0.67375823502350 -0.33941659075908
 6 -9.40583425582558  1.84760949624962 -0.41453250555055
 6 -10.66890352065207  1.77363723482348 -0.91690747194719
 6 -10.89140349784978  0.34466537093709 -1.06399725522552
 6 -9.72968463176318 -0.23147131033103 -0.61351342804280
 6 -11.68555533083308  2.72413860696070 -1.18261291209121
 6 -12.14962808330833 -0.34044760706071 -1.64972310601060
 6 -12.07764462656266 -0.64475664086409 -3.11040383508351
 7 -6.94442092499250 -1.39310187148715 -0.11361400590059
 6 -8.13279594119412 -2.12747274397440 -0.57975117311731
 6 -7.71404898999900 -3.71974929732973 -0.53334434453445
 6 -6.39650527172717 -3.66353551445145 -0.21977023762376
 6 -6.01199748844884 -2.28817763226323  0.06023220752075
 6 -8.68913743724372 -4.85221259905991 -0.66518933483348
 6 -5.18016422092209 -4.48435423352335  0.04457248294830
 8 -5.09581132983298 -5.61029156745674 -0.00180967436744
 6 -3.98724244964496 -3.46900745994600  0.63880852805281
 6 -3.56865037593759 -3.81698787428743  1.95625533853385
 8 -4.26361160126013 -4.07867460226023  2.96981565136514
 8 -2.17823949884989 -3.83463976927693  1.78298823802380
 6 -1.52555107720772 -4.11164625472547  3.05379980518052
 6  2.85017691049105 -2.72386756365637 -0.99946119021902
 6  4.02270603800380 -1.85945294639464 -0.62229776207621
 6  4.91776253165316 -1.35228209960996 -1.51375757735774
 6  4.94895887968797 -1.66950008470847 -2.85393237543754
 6  5.94876870147015 -0.54323197609761 -1.00847740624062
 6  7.45502419641964 -1.06789257135714 -0.75782251955196
 6  8.35182774307431 -0.17423178857886 -0.12941142164216
 6  9.85744883428343 -0.61143806410641  0.14751644594459
 6  9.71264878117812 -1.59158797349735  1.22267663646365
 6  10.85940827082708  0.49845469966997  0.54088892729273
 6  12.29372464296430 -0.06003469626963  0.79190750195019
 6  13.33421496409641  1.21714898959896  0.33230612901290
 6  14.73670000520052  0.69658293639364  0.13633829592959
 6  15.02457744584459 -0.47473975447545  1.35112503650365
 6  15.79468909730973  1.82969787178718  0.08270147544754
 6  17.12187166526653  1.12100732513251 -0.36466334023402
 6  18.26008555595560  2.42222941414141 -0.42162230903090
 6  19.78738093919392  1.70235873067307 -0.65406549024902
 6  19.85624542584258  0.97523295359536 -1.96721251245125
 6  20.75937310621062  2.94624604260426 -0.63758885478548
 1 -3.10148078637864  3.48882013301330  0.56165556725673
 1 -9.35454943744374  4.04190327542754 -0.30325395929593
 1 -9.98431092269227 -1.85344574387439 -1.42740556645665
 1 -2.51937445424542 -1.34421203900390  1.96659670797080
 1 -1.79292863146315  1.71612208840884  0.65023147654765
 1 -0.76447783148315  0.92474078847885  3.06607731883188
 1 -1.95792396629663  2.36596517291729  2.89005512331233
 1 -2.60187251975197  0.75104298959896  3.41408727782778
 1 -2.19530855115512 -1.90701197419742 -0.53855164196420
 1 -1.38333350235024 -0.25436690959096 -0.87151694249425
 1  0.36870486878688 -0.47268870217022  1.12670853605361
 1 -0.21136485628563 -2.52828916271627  1.34957518961896
 1 -3.73748827922792  5.67124495239524  0.72875783348335
 1 -5.04817509810981  7.06401907780778  0.83481038713871
 1 -4.31851287948795  6.38097705870587  2.25963373567357
 1 -8.79025203930393  6.28639374857486 -0.18946532233223
 1 -12.01959151275127 -1.20040090759076 -1.15271969916992
 1 -13.18430464546455  0.33423982378238 -1.60850848724873
 1 -12.64689251235123 -1.36691880728073 -3.62414953205321
 1 -11.93762072587259  0.61024844634463 -3.68348051755176
 1 -11.16640346474647 -1.23688700570057 -3.22088869626963
 1 -9.98180736403640 -4.40057661326133 -1.49075130313031
 1 -8.51498671327133 -5.70948096069607 -1.08089774167417
 1 -9.23294057405741 -5.19092105330533  0.77893250275028
 1 -3.07917749914992 -3.44077780268027 -0.03092139893989
 1  2.89857147254725 -3.71458873267327 -0.85975169226923
 1  2.74663895269527 -2.74278019301930 -2.18649888518852
 1  4.20003733143314 -1.27603035143514  0.27209081068107
 1  4.16116917391739 -1.20576404890489 -3.68008812381238
 1  5.91017459585959 -1.07326600200020 -3.32429365326533
 1  4.93091691909191 -2.55013762806281 -2.92923710751075
 1  5.95565598749875  0.36123146054605 -2.15675829302930
 1  5.81330644004400  0.34860040784078 -0.16763102650265
 1  7.32609378827883 -2.07575577267727 -0.05740401880188
 1  7.87499289768977 -1.64388317861786 -2.04104358025803
 1  8.53220535193519  0.65410600540054 -0.37200998629863
 1  8.05174367246725  0.25094028222822  0.91243695209521
 1  9.80852329942994 -1.06176362006201 -0.62573973157316
 1  9.32635487978798 -2.58798761446145  0.79902826362636
 1  10.81500757015702 -1.87011089228923  1.93483537493749
 1  8.77709092069207 -1.59542076447645  2.15909721482148
 1  10.74686832463246  1.05266802670267 -0.45617278887889
 1  10.34986473307331  0.84465334093409  1.21538541884188
 1  12.51005854805481 -0.62587502700270  1.86900058335834
 1  12.54371652565256 -0.61294951555155 -0.01138413591359
 1  13.04174904490449  1.85351489648965 -0.44972387698770
 1  13.40343238803880  2.05226947824782  0.97079286868687
 1  14.92678410421042 -0.05983349934993 -0.79054724592459
 1  14.57485738563856 -0.20109971447145  2.26654942794279
 1  14.30154742824282 -1.37520519241924  1.33811130923092
 1  16.20883791689169 -0.66623020612061  1.20860733843384
 1  15.33720485538554  2.72436242964296 -0.48122809750975
 1  15.89797382998300  2.42364189968997  1.20700902410241
 1  17.59581089618962  0.42949612021202  0.57637782448245
 1  17.18909643384339  0.55001317051705 -1.26404778217822
 1  18.06538154525453  3.07273382118212 -1.72872586088609
 1  18.00809080518052  3.07403131003100  0.60052672317232
 1  20.17741030223022  0.84325717191719 -0.01121777097710
 1  19.27446576457645  1.47379242884288 -2.83462558775878
 1  20.95482977297729  0.93890208840884 -2.25560969436944
 1  19.14900762776278  0.01980426202620 -1.81562963766377
 1  20.62508928752875  3.51627120622062  0.34434518811881
 1  21.80276801710171  2.36455303800380 -1.04860757575758
 1  20.27173382628263  3.61704919211921 -1.51471626792679
 1 -1.08942456755676 -5.09575232463246  2.85897424542454
 1 -2.03945362636264 -4.72869014271427  3.94119475607561
 1 -1.08435244854486 -3.00940941804180  3.35554970817082
 8 -11.53278165246525  4.04949974917492 -1.11984379807981
 1 -12.71040155165517  2.11828306840684 -1.31487209220922

