%nproc=4
%Mem=2GB
# td=(NStates=1) iop(3/107=0140000000,3/108=0140000000) iop(3/107=0140000000,3/108=0140000000) CAM-B3LYP/6-31G(d,p) 

TD

0 1
12 -6.88920149224923  0.60169931403140  0.19466708620862
 6 -4.50492759925993 -2.08129655145515  0.50802107910791
 6 -4.16949876527653  2.78662029512951  0.91445432703270
 6 -9.04519722442244  3.31949597369737 -0.31078057975798
 6 -9.26777487508751 -1.54504753435343 -0.62867292599260
 7 -4.68063313521352  0.44309370707071  0.65864489658966
 6 -4.04888215381538 -0.83604331113111  0.57328788418842
 6 -2.47218063666367 -0.49154091329133  1.09044110641064
 6 -2.43808377417742  0.88905905470547  1.22614477697770
 6 -3.88872513541354  1.42251233643364  0.85497027172717
 6 -2.12613889958996  1.31811360726073  2.69815437823782
 6 -1.61027977637764 -0.81292385578558 -0.17364603830383
 6 -0.24210232853285 -1.28651035763576  0.26565563906391
 6  0.76858793799380 -1.41566880378038 -0.90752892669267
 8  0.56379644774477 -1.04064667716772 -2.01885287548755
 8  1.72083236983698 -2.08898919751975 -0.42221714421442
 7 -6.64861660386039  2.59786015601560  0.26002975087509
 6 -5.47059762066207  3.19368801200120  0.62135843204320
 6 -5.85247946314631  4.88823850865086  0.65015988458846
 6 -7.09379009240924  4.97645373587359  0.29990657395740
 6 -7.65754745864587  3.53016182458246 -0.10077524612461
 6 -4.61672659295930  5.79464689518952  0.95949361736174
 6 -7.81264282558256  6.12596951705171  0.23276279998000
 8 -7.33864778097810  7.32237385398540  0.28462631943194
 7 -8.93515706920692  0.81115197439744 -0.24520716981698
 6 -9.49453312571257  1.92071680698070 -0.34005505780578
 6 -10.87187381768177  1.51667153825383 -0.87904368556856
 6 -10.91563592109211  0.23549445384538 -0.85691654715472
 6 -9.57030869416942 -0.28225638883888 -0.59320139683968
 6 -11.80696747204720  2.59835602870287 -1.15147979877988
 6 -12.15997911841184 -0.39789335163516 -1.30035816951695
 6 -11.74460132223222 -1.06773893909391 -2.79918271297130
 7 -6.94734121702170 -1.43288584988499  0.11351870737074
 6 -8.02126478807881 -2.16048604530453 -0.27919111711171
 6 -7.65842342744274 -3.53763108550855 -0.25683669376938
 6 -6.32180780198020 -3.62658181908191  0.04270601000100
 6 -5.93193948264826 -2.27771658615862  0.31287747204721
 6 -8.55094361786179 -4.71679905770577 -0.57619043494349
 6 -5.15881208570857 -4.43439923802380  0.30028805450545
 8 -5.00973272197220 -5.68528906720672  0.19088959555956
 6 -4.03017674307431 -3.39425998519852  0.56721136833683
 6 -3.14391790269027 -3.74210038553855  1.76524623762376
 8 -3.60913615371537 -3.74330106490649  2.93118178797880
 8 -1.69876155105511 -3.84347065236524  1.62653259245925
 6 -1.04489301140114 -4.06612170227023  2.82351677687769
 6  2.91516340914091 -2.36763194009401 -1.34564580868087
 6  3.92227599499950 -1.40482748384838 -1.06924245654565
 6  4.96509726512651 -1.17518438983898 -1.89358556015602
 6  5.00533451725172 -1.72672580728073 -3.37269425162516
 6  6.20283410801080 -0.15486313921392 -1.67466402490249
 6  7.46655534953495 -0.86231201330133 -1.05379211651165
 6  8.45042760306031  0.18898453305331 -0.60863934443444
 6  9.72548563796380 -0.55956287658766 -0.05644395009501
 6  9.56890440674067 -1.24386320102010  1.34789915871587
 6  10.94427675767577  0.41195604980498  0.03709854825483
 6  12.25315058555856 -0.01397008980898  0.17211552275228
 6  13.26134767736774  0.85778305300530  0.24591749014901
 6  14.72831916711671  0.34950822892289  0.42040670277028
 6  14.95111009910991 -0.42303458395840  1.98417834183418
 6  15.81917154555456  1.50494539653965  0.29141234653465
 6  17.31006048414842  0.99066429082908  0.52407553365337
 6  18.33551309870987  1.98697588878888 -0.15068521532153
 6  19.69074127522752  1.39525802060206 -0.34842492619262
 6  19.76317611891189  0.58256368666867 -1.56687247844784
 6  20.77128429732973  2.50837225522552 -0.28349344524452
 1 -3.22710334863486  3.41400265126513  1.29863926562656
 1 -9.97043102560256  4.04822390749075 -0.51606524042404
 1 -10.06346883848385 -2.22075247454745 -0.92798562446245
 1 -2.21591410821082 -1.25291290909091  2.00729077737774
 1 -1.61212055065507  1.64180465666567  0.75722217561756
 1 -1.25144652835284  1.15505381978198  3.23936464756476
 1 -1.90408858275828  2.44434301070107  2.74081019881988
 1 -2.82791512401240  1.25124300960096  3.65340120922092
 1 -2.04465348564856 -1.76356762976298 -0.82879066586659
 1 -1.31303647264727  0.18469699679968 -0.75177496829683
 1  0.49283728202820 -0.43058449174918  0.89461532673267
 1 -0.36146986678668 -2.25476180998100  0.91294152625262
 1 -3.98181271167117  5.40593842174217  0.27192214991499
 1 -4.75045532613261  6.87491016691669  0.82619952605261
 1 -4.46234726292629  5.57101606260626  1.87346511881188
 1 -8.97812082618262  5.73030814001400 -0.06263263906391
 1 -12.37530708430843 -1.19084995249525 -0.71168559575958
 1 -13.25878209320932  0.08357475727573 -1.24759239563956
 1 -12.34482230533053 -1.58373048844885 -3.11161827892789
 1 -11.60036700050005 -0.43964654315432 -3.81293346284629
 1 -10.96704352875287 -1.87238055505551 -2.61618822622262
 1 -8.84735391869187 -4.74145070067007 -1.62594482248225
 1 -8.02101731633163 -5.67574758735874 -0.26735638753875
 1 -9.43760104010401 -4.87341930313031  0.22235684518452
 1 -3.20596017741774 -3.54920864576458 -0.30673898069807
 1  3.22187380278028 -3.35688296209621 -0.78453417051705
 1  2.76511079987999 -2.14681059605961 -2.31807204250425
 1  4.11460878857886 -0.94274702310231  0.03322692429243
 1  3.89669272627263 -1.65504897739774 -3.87046716171617
 1  5.91983556195620 -1.06101477687769 -4.18112933683368
 1  5.08292211961196 -2.92670528482848 -3.38636282008201
 1  6.50190061196120  0.30065540294029 -2.70557317451745
 1  5.77306241564156  0.66868241604160 -0.98848311171117
 1  7.17373855275528 -1.54195239233923 -0.32440071847185
 1  7.81913731213121 -1.44779356965697 -1.77569704560456
 1  8.58720085148515  1.11524211901190 -1.42350513581358
 1  8.12368086618662  0.63882907110711  0.17983369176918
 1  10.19302174927493 -1.61328877257726 -1.09217637523752
 1  8.77567981228123 -2.17879669536954  1.26810517131713
 1  10.45243131253125 -1.63561744294430  1.55716760816082
 1  9.34179739133914 -0.34297551995200  2.15487679277928
 1  10.56757039483948  0.42651541144114 -1.13169034063406
 1  10.72512225882588  1.47423629922992  0.54939882018202
 1  12.38161570377038 -0.46930937043704  1.03456714001400
 1  12.17858001200120 -0.69976819741974 -0.50732372987299
 1  13.45345021502150  1.38678822382238 -0.55710461506151
 1  13.05159720452045  1.58324257555756  0.96297208660866
 1  14.81178260406041 -0.71862937893789 -0.35704389558956
 1  14.69709960986099  0.67254765026503  2.81288406140614
 1  14.17663493699370 -1.31869954185418  2.23705120322032
 1  16.18227526062606 -0.67898148124812  2.03568004570457
 1  15.55306644154415  1.94853484688469 -0.72121209590959
 1  15.59843387598760  2.33763329882988  1.03628195139514
 1  17.70579189428943  0.61728489908991  1.95917610431043
 1  17.57640516471647  0.20749891909191 -0.50725210261026
 1  18.00987599469947  2.49505605340534 -0.98778176647665
 1  18.21509150525053  2.44010791769177  0.65396206670667
 1  19.84792735393540  0.39598244444444  0.21701505230523
 1  19.43578189618962  1.30258530813081 -2.38341046624662
 1  20.75231952195220  0.10299849804980 -1.92270640404040
 1  19.16833956095610 -0.48751647004700 -1.31303937863786
 1  20.62357913651365  2.96268584768477  0.70599135273527
 1  21.73290103040304  1.83078966166617 -0.26124883988399
 1  20.61900855375537  3.32912039923992 -1.15591038733873
 1 -0.14611023612361 -3.92638538793879  2.47359570757076
 1 -1.22977265826583 -5.17713498719872  3.33150378697870
 1 -1.25271928522852 -3.26698517561756  3.44990914411441
 8 -11.75503387768777  3.85640043924392 -0.94138595229523
 1 -12.87058757025703  2.18752999309931 -1.29881048604861

