%nproc=4
%Mem=4GB
# td=(NStates=1) iop(3/107=0140000000,3/108=0140000000) iop(3/107=0140000000,3/108=0140000000) CAM-B3LYP/6-31G(d,p) 

TD

0 1
12 -5.63855536213621  1.25363023732373  0.10462906810681
 6 -5.02532291949195 -2.08963742704270 -0.36666353315332
 6 -3.49376816591659  1.13704398919892  2.83594896819682
 6 -6.23106190189019  4.53001626582658  0.68714892369237
 6 -8.02926869396940  1.18131898259826 -2.41822949644965
 7 -4.35347960126013 -0.28810700250025  0.99392073087309
 6 -4.24004753225323 -1.58468216981698  0.60292264186419
 6 -3.19692281678168 -2.32261556435644  1.44824918861886
 6 -2.91150432143214 -1.32313520442044  2.58195475157516
 6 -3.61532896029603 -0.02750537823782  2.10322490769077
 6 -3.57543058245825 -1.76753019441944  3.88238093749375
 6 -2.01746693989399 -2.74214162346235  0.53480878637864
 6 -0.95683732723272 -3.50399798039804  1.37778136613661
 6  0.27321242174217 -3.87507134783478  0.68786698139814
 8  0.58115818011801 -3.30575788938894 -0.35897213141314
 8  1.01919876557656 -4.78325794309431  1.29642424972497
 7 -4.95451626792679  2.59615899279928  1.48286851855185
 6 -4.04398648844885  2.42359978167817  2.46260686398640
 6 -3.85307481118112  3.70866936913691  3.20346090229023
 6 -4.54253480618062  4.62850437873787  2.64347361866187
 6 -5.27407351155115  3.90989908510851  1.54725081738174
 6 -2.88389375247525  3.79768714451445  4.36633082248225
 6 -4.58262479307931  5.99167658815882  2.87482698749875
 8 -3.95977602560256  6.54886277427743  3.80280418031803
 7 -6.88904270417042  2.66735663146315 -0.76453811011101
 6 -7.01434414921492  3.97016663386339 -0.34438612731273
 6 -7.97287247364736  4.58292501730173 -1.11787589708971
 6 -8.39857931123112  3.67314424432443 -2.07981692609261
 6 -7.69896878737874  2.44943095189519 -1.71081702820282
 6 -8.39586257715772  5.95916582598260 -1.09773928272827
 6 -9.50839520282028  3.87033743194319 -3.20856548934893
 6 -8.75182663636364  4.10691883808381 -4.53342974697470
 7 -6.36356477547755 -0.06369138683868 -1.10529562156216
 6 -7.48015754535454 -0.01847791639164 -2.10019423012301
 6 -7.59090659785979 -1.29556125972597 -2.72633515611561
 6 -6.68073762256226 -2.12863243504350 -2.11060722642264
 6 -6.00938935433543 -1.40501406650665 -1.18697482788279
 6 -8.63680913871387 -1.67678780478048 -3.74921181738174
 6 -6.28821248834883 -3.51414699859986 -2.07894144924492
 8 -6.67100149564957 -4.58184588298830 -2.52198846394639
 6 -5.02061062316232 -3.47245529812981 -0.92429474927493
 6 -5.20673815121512 -4.59346478757876  0.15683935573557
 8 -5.84980075167517 -4.50619962806281  1.20330669406941
 8 -4.83899359755976 -5.76034723112311 -0.25766891149115
 6 -5.22875043924392 -6.90756260956096  0.49393122292229
 6  2.26708768196820 -5.14059517971797  0.68658261266127
 6  3.33565810081008 -4.11889205010501  0.95500340014001
 6  3.99777916811681 -3.31833470357036  0.10709434443444
 6  3.86808114701470 -3.32958790009001 -1.39501900640064
 6  5.25314173997400 -2.50059510711071  0.67565136393639
 6  6.58985385668567 -2.70368329352935  0.04605607300730
 6  7.66651197479748 -1.85530488598860  0.61136682718272
 6  9.16535735703570 -2.02004683828383 -0.03226100860086
 6  9.64622100380038 -3.32860350075007  0.32989953225323
 6  10.07098767786779 -0.90426066346635  0.39269178467847
 6  11.48776607900790 -0.90402000890089 -0.26576534273427
 6  12.29856754535454  0.21686631413141  0.16457330493049
 6  13.63809626542654  0.42571744164416 -0.56122088528853
 6  14.42824112311231 -0.72667206980698 -0.31505565646565
 6  14.31267720732073  1.73109928152815 -0.15904515931593
 6  15.51660585098510  2.19089711791179 -1.01104609960996
 6  16.05669825422542  3.56554130693069 -0.59701031423142
 6  17.33859910901090  3.87965580718072 -1.35912984818482
 6  17.21555414511451  4.00161505320532 -2.91529375357536
 6  17.88902830893089  5.28092335763576 -0.88327778667867
 1 -2.87360308310831  0.90515479087909  3.68966943534353
 1 -6.24618259705971  5.62008738913891  0.74927391909191
 1 -8.62368277547755  1.28810911381138 -3.35812129092909
 1 -3.49730079487949 -3.22308762416242  1.97335539633963
 1 -1.76002312621262 -1.02462012361236  2.82209348544854
 1 -2.89069884898490 -2.50663382458246  4.47433097709771
 1 -3.40512130483048 -0.87582748714872  4.64665669546955
 1 -4.59009152085209 -2.01339041994199  3.79363331383138
 1 -2.23767908160816 -3.42227174447445 -0.35536616041604
 1 -1.63905173757376 -1.68225734203420  0.22393051465146
 1 -0.73089852335234 -2.86368766436644  2.23984820352035
 1 -1.40594531613161 -4.35822295349535  1.77826962496250
 1 -1.99452956675668  3.41233075747575  4.20541645134513
 1 -2.79194018411841  4.87761496749675  4.72357861556156
 1 -3.42319531453145  3.33012400990099  5.08754376037604
 1 -5.46312937683768  6.62130632503250  2.37812313371337
 1 -10.32541167466747  3.07850850795079 -3.25457870957096
 1 -10.12044284218422  4.67600144424442 -2.97329762046205
 1 -9.55562536233623  4.10271868586859 -5.46161136343634
 1 -8.26869637903790  5.09299904530453 -4.46728668366837
 1 -8.07985783478348  3.30120947974797 -4.70472039683968
 1 -8.65493308290829 -0.97376791969197 -4.63020401870187
 1 -8.30702168516852 -2.68402180728073 -4.26352898989899
 1 -9.59580966046605 -1.82702952635264 -3.24651155785579
 1 -4.05010236763676 -3.75079990659066 -1.42159544644464
 1  2.33930506350635 -6.03015095809581  1.11836779367937
 1  1.99560030343034 -5.13236021212121 -0.16953040264026
 1  3.64063618591859 -3.89850913271327  2.02212722032203
 1  2.94179916661666 -3.93018863996400 -1.80153269426943
 1  3.76956156945695 -2.18974253355336 -1.64995746624663
 1  4.89437161116112 -3.61271500070007 -2.06490541644164
 1  4.92793283418342 -1.46276270027003  0.51513339683968
 1  5.19549807710771 -2.83798543094309  1.75176005630563
 1  6.91296882358236 -3.78989218131813  0.13229111311131
 1  6.71517167756776 -2.46139374837484 -1.17790838633863
 1  7.37978690999100 -0.82767609270927  0.70501774727473
 1  7.73846594949495 -2.29154573767377  1.60158454375438
 1  8.88563267256726 -2.04907318251825 -1.13266660476048
 1  9.23605812451245 -4.32360113151315 -0.00470426282628
 1  10.50723006380638 -3.56088029012901 -0.31022113561356
 1  9.79288835023502 -3.39444053555355  1.52667311001100
 1  9.70491964256426  0.10633635983598  0.05623098689869
 1  10.22635273277328 -0.82336887078708  1.46048558855886
 1  11.99426456775678 -1.79182921482148  0.18562418921892
 1  11.36805289198920 -0.83298620352035 -1.45666700030003
 1  11.62718375187519  1.14391882108211  0.21188163296330
 1  12.41234605790579 -0.03196200480048  1.18854713491349
 1  13.44991179187919  0.59921435373537 -1.49801203990399
 1  14.67635697399740 -0.92541075377538  0.64715039503950
 1  13.75003057405740 -1.57429644594459 -0.76988330983098
 1  15.34788577697770 -0.65008820702070 -0.98542543504350
 1  13.75003319751975  2.64674929402940 -0.15793758145815
 1  14.59835653595360  1.52357264646465  1.00193740764076
 1  16.34530618641864  1.29430804350435 -0.84837132783278
 1  15.12049763316332  2.09624353715371 -2.03740512021202
 1  15.22099350395040  4.17174255225523 -0.76299829792979
 1  16.24565733583358  3.57522416381638  0.49064896529653
 1  18.00241392279228  3.02836432763276 -1.12385146474647
 1  16.42037275767577  4.85047157605761 -2.99822218201820
 1  18.09588551205121  4.12444195749575 -3.58756336143614
 1  16.60671087128713  3.09295036503650 -3.40342837743774
 1  17.87529357655765  5.10525174267427  0.24117578177818
 1  19.06276379867987  5.58087223942394 -1.14323123752375
 1  17.21113266416642  6.13515301840184 -1.29386344764476
 1 -4.98209351075108 -7.72700213331333 -0.15352889058906
 1 -6.25661009130913 -6.85111219781978  0.57198070557056
 1 -4.78786695529553 -6.91515309090909  1.53419787638764
 8 -7.96998459005901  6.80019652045205 -0.31879966396640
 1 -9.06632492959296  6.48748439333933 -1.69114479727973

