%nproc=4
%Mem=4GB
# td=(NStates=1) iop(3/107=0140000000,3/108=0140000000) iop(3/107=0140000000,3/108=0140000000) CAM-B3LYP/6-31G(d,p) 

TD

0 1
12 -5.50342184878488  1.15963083738374  0.11720032523252
 6 -5.06048643584358 -2.01086955025503 -0.45287215401540
 6 -3.39887867696770  1.11006129092909  2.74830020332033
 6 -6.16805560126013  4.53171643584358  0.67948815761576
 6 -7.93838960606061  1.13668451915192 -2.34801247474747
 7 -4.35256951025103 -0.24844303610361  1.05710704950495
 6 -4.19205273277328 -1.53369707130713  0.52087443704370
 6 -3.17078020252025 -2.37060036283628  1.43974833853385
 6 -2.88861203220322 -1.34974786568657  2.58244480058006
 6 -3.48867629502950 -0.07544017171717  2.08874345954595
 6 -3.33031607100710 -1.84032747414741  3.89146184558456
 6 -1.85514070727073 -2.76436384568457  0.58977428292829
 6 -0.84108575207521 -3.51766934753475  1.44695828382838
 6  0.32885798629863 -3.96641048174817  0.57007520222022
 8  0.54954501880188 -3.43307062066207 -0.50719695389539
 8  1.04309115481548 -4.94027364466447  1.24389899719972
 7 -4.87069788608861  2.62364174107411  1.36969720142014
 6 -3.94938702850285  2.31517893959396  2.41497210051005
 6 -3.70271977567757  3.63196169836984  3.17522807900790
 6 -4.48202875557556  4.64438596689669  2.57738701000100
 6 -5.25571167536754  3.94160225542554  1.51902799509951
 6 -2.70704606770677  3.66868424422442  4.32849703910391
 6 -4.62103863446345  6.04704212471247  3.01440094489449
 8 -4.05789583758376  6.49072696069607  4.00783468336834
 7 -6.76725052495250  2.59814971077108 -0.70920257655766
 6 -6.91329404420442  3.98377799499950 -0.35238692739274
 6 -7.74342952935294  4.63629035383538 -1.29691380088009
 6 -8.32001145444544  3.67750468036804 -2.13154209860986
 6 -7.66376526702670  2.41255726452645 -1.78771471797180
 6 -8.07790078097810  5.98897880728073 -1.21453096189619
 6 -9.41573593689369  3.88949934813481 -3.17222185498550
 6 -8.76091754545455  4.19176732293229 -4.59150555455546
 7 -6.33311173017302 -0.12170718841884 -1.18970406240624
 6 -7.32465199479948 -0.05015108370837 -2.07698190889089
 6 -7.62390989818982 -1.33959566316632 -2.61776429902990
 6 -6.63765331413141 -2.15759533133313 -2.10357652335234
 6 -5.95819423482348 -1.32415598069807 -1.14022015241524
 6 -8.61418687648765 -1.63951407740774 -3.67703459965997
 6 -6.21711537863786 -3.54374995889589 -1.95263881898190
 8 -6.65119951545155 -4.46078377677768 -2.55207147224722
 6 -5.05539410151015 -3.51740979357936 -0.91928424822482
 6 -5.40923840124012 -4.73920936203620  0.08145181698170
 8 -5.81727749934993 -4.36248525662566  1.19209557295730
 8 -5.11769146734673 -5.90138133453345 -0.41999514411441
 6 -5.38085564976498 -7.00655250855085  0.55306713651365
 6  2.32975394859486 -5.18955007520752  0.63104705910591
 6  3.43445798079808 -4.19703986488649  1.08395629542954
 6  4.01540093029303 -3.34891776187619  0.26466010101010
 6  3.72034637353735 -3.10495543684368 -1.20156966146615
 6  5.07569399519952 -2.39367441504150  0.86333013181318
 6  6.48226309760976 -2.72909583478348  0.25479694709471
 6  7.55458078167817 -1.60593994949495  0.76430212071207
 6  8.93426424772477 -1.92377721132113  0.13362558005801
 6  9.49469585128513 -3.27721836223622  0.18479502180218
 6  9.84732531163116 -0.77447768516852  0.57505002050205
 6  11.29192649504951 -0.83741334823482 -0.18548731493149
 6  11.97471516011601  0.41393602110211  0.24051089868987
 6  13.33240569636964  0.54061893179318 -0.57689245244524
 6  14.20952925192519 -0.71800120272027 -0.62905705660566
 6  14.14420035963596  1.81863803540354 -0.27980723552355
 6  15.33322751315131  2.16564459265927 -1.15276027102710
 6  15.94494707910791  3.51600635343534 -0.66842745594559
 6  17.27664291339134  3.88777661926193 -1.36890082528253
 6  17.09980256995700  3.98307319901990 -2.89179140334033
 6  17.91297070317032  5.13052831813181 -0.88209766866687
 1 -2.79475519831983  0.96505078047805  3.83527399579958
 1 -6.29401738053805  5.67716309670967  0.94828382008201
 1 -8.62454286148615  1.04690499339934 -3.09492497129713
 1 -3.82525359015902 -3.14871018641864  1.91502956375638
 1 -1.82912003590359 -1.16215387698770  2.72070334643464
 1 -2.87252703180318 -2.65338850005001  4.26282982698270
 1 -3.34303509620962 -1.12688259265927  4.90111214101410
 1 -4.45763827552755 -2.12522160306031  3.70796474697470
 1 -2.16963227692769 -3.27445696299630 -0.25257588138814
 1 -1.57017484988499 -1.85433454975498  0.32961108270827
 1 -0.56775220872087 -2.97838913451345  2.40104432313231
 1 -1.43176789838984 -4.57655478667867  1.80195199319932
 1 -1.65397551135114  3.82910243464346  3.95696160586059
 1 -2.88352934303430  4.75841304730473  4.69056531423142
 1 -2.88770176517652  2.62311330883088  5.03690869686969
 1 -5.44488755265527  6.64568876327633  2.48505382678268
 1 -9.94786391989199  2.88658931603160 -3.30239349104911
 1 -10.06508730663066  4.72941678577858 -3.08159845054505
 1 -9.35173497329733  4.35612402640264 -5.33159836213621
 1 -8.35234474387439  5.24036378177818 -4.64052400740074
 1 -7.82697254625463  3.62004136293629 -4.85925585038504
 1 -8.76660425002500 -1.14328487138714 -4.57270826912691
 1 -8.65161614461446 -2.78120152525253 -3.81252388938894
 1 -9.52680275977598 -1.68390521392139 -3.47339424612461
 1 -4.12101945934594 -3.70600542714271 -1.58766205310531
 1  2.75370650365037 -6.12571051405140  1.04854081098110
 1  2.30143088648865 -5.14742171827183 -0.49966341594159
 1  3.81976409870987 -4.35053433523352  2.10684569216922
 1  2.71419640634063 -3.45564118521852 -1.41732427342734
 1  4.07823243654365 -1.98151171047105 -1.49491196169617
 1  4.49220139413941 -3.59300302950295 -1.75213413931393
 1  4.69904994589459 -1.40924734873487  0.60309219271927
 1  5.33281180848085 -2.26790842324232  2.04760964126413
 1  6.75569309600960 -3.71545473757376  0.71026891089109
 1  6.49272943334333 -2.77087469646965 -0.70724131963196
 1  7.13677260856086 -0.84016734183418  0.38516576207621
 1  7.57335943884388 -1.61707829092909  1.89738412371237
 1  8.85346945624562 -1.86179445464546 -0.87094043214321
 1  9.00508502720272 -3.98455722712271 -0.35019881228123
 1  10.42463180398040 -3.44540874297430 -0.43982409590959
 1  9.81086014741474 -3.52762385388539  1.19793023572357
 1  9.47194634523452  0.22628835503550  0.43470883468347
 1  10.05077517501750 -0.98712524642464  1.64198373837384
 1  11.57358249954995 -1.82312234413441  0.26855248204820
 1  10.96102218891889 -1.05176808170817 -1.29406073967397
 1  11.53083411691169  1.33313774297430  0.07320776557656
 1  12.25257008030803  0.50688187958796  1.35920420062006
 1  12.88921572227223  0.75089952225222 -1.64247648634863
 1  14.68664800310031 -0.90223843654365  0.51322700270027
 1  13.88185375637564 -1.77968698499850 -1.20047636913691
 1  15.33436442484249 -0.43268646684668 -0.98754564706471
 1  13.45771396559656  2.73851847094709 -0.60699248694869
 1  14.26053275357536  1.76347663686369  0.79993720762076
 1  16.13782543834384  1.42062067476748 -1.11274776547655
 1  14.91673725712571  2.44836874967497 -2.32363374307431
 1  15.17414881948195  4.39671504950495 -0.76048804690469
 1  15.96697946804681  3.36192283368337  0.34986488688869
 1  17.83608729012901  3.09782127332733 -1.32225130473047
 1  16.21295201560156  4.66106263516352 -2.86808916871687
 1  17.89980590409041  4.53691320462046 -3.41318592369237
 1  16.89041924212421  3.08572964296430 -3.38905694029403
 1  17.86258230543054  5.30296151365137  0.25135679987999
 1  18.92749027132713  5.31075522772277 -1.10375729012901
 1  17.37191874277428  6.13772327542754 -1.26247030833083
 1 -5.13817911931193 -7.95216464956496  0.11223768606861
 1 -6.33372780308031 -6.96230331693169  0.63436694419442
 1 -4.62679084768477 -6.80763233883388  1.44566902350235
 8 -7.68837642924292  6.84381088188819 -0.37927571157116
 1 -8.90437873497350  6.28346399129913 -2.01777746054605

