%nproc=4
%Mem=4GB
# td=(NStates=1) iop(3/107=0140000000,3/108=0140000000) iop(3/107=0140000000,3/108=0140000000) CAM-B3LYP/6-31G(d,p) 

TD

0 1
12 -5.65067657425743  1.19306418071807  0.15509411461146
 6 -5.05063545074507 -2.14405286858686 -0.32693956075608
 6 -3.55786457555756  1.15006529132913  2.78314368766877
 6 -6.12478127382738  4.54664792899290  0.60334054285429
 6 -7.96402216931693  1.19967081778178 -2.29617729122912
 7 -4.62200645394539 -0.25334352615262  1.21094243304330
 6 -4.42506603410341 -1.62444614621462  0.71265361496150
 6 -3.30707383188319 -2.33966726952695  1.51997636133613
 6 -3.03136630763076 -1.34044693559356  2.67383393949395
 6 -3.68728615601560 -0.07262989068907  2.20842542774277
 6 -3.49229226862686 -1.88653209460946  4.06275897529753
 6 -2.01710690389039 -2.61409881918192  0.61406671217122
 6 -1.01212285578558 -3.45783336393639  1.39029261726173
 6  0.20959606010601 -3.72132597329733  0.49342753745375
 8  0.36768683298330 -3.41422873647365 -0.53888012221222
 8  1.06611345704570 -4.49467908520852  1.27891249854986
 7 -4.97710852715272  2.57954733163316  1.50253048474848
 6 -4.04925701550155  2.34113153485349  2.48354895819582
 6 -3.79202870657066  3.66976547874787  3.27578813501350
 6 -4.44774532723272  4.60279180748075  2.54141341264126
 6 -5.29535563976398  3.98587668286829  1.51210730303030
 6 -2.87709307240724  3.76535391119112  4.34245843524352
 6 -4.46581311191119  6.06648406890689  2.87182668746875
 8 -3.65964601260126  6.52153004100410  3.79440334023402
 7 -6.87260106000600  2.66578647444744 -0.76188784508451
 6 -6.93285600040004  3.94613423062306 -0.35356704540454
 6 -7.91275646204620  4.60607733253325 -1.22142625212521
 6 -8.45380483378338  3.58278520842084 -2.02206115051505
 6 -7.73834272477248  2.39680568936894 -1.69300524702470
 6 -8.24320731163116  5.87216712611261 -1.18474798359836
 6 -9.41120548384839  3.78125852405241 -3.17178181098110
 6 -8.78412986668667  4.04099224542454 -4.50675707970797
 7 -6.49540795979598 -0.20669568726873 -1.01528662066207
 6 -7.44136366596660 -0.03428949754976 -2.10842505320532
 6 -7.57706521372137 -1.36180788438844 -2.73315583818382
 6 -6.61336088488849 -2.18329790159016 -2.17021318701870
 6 -5.99554797019702 -1.48589215431543 -1.14881101150115
 6 -8.63274873267327 -1.69674980098010 -3.80764766096610
 6 -6.15230889798980 -3.52347793169317 -2.08391194629463
 8 -6.53611800730073 -4.54983268166817 -2.70992725782578
 6 -5.04441300340034 -3.54508256085609 -0.92467478727873
 6 -5.35829330673067 -4.62237767886789  0.10815448724873
 8 -5.68825459705971 -4.49997900600060  1.24990135353535
 8 -5.17685738393839 -5.88645984238424 -0.43556670127013
 6 -5.39054661886189 -7.03642549584958  0.48451028082808
 6  2.31780275347535 -4.85797691789179  0.59588354275428
 6  3.44662919791979 -4.01313147404740  0.96327422722272
 6  4.11339072927293 -3.19685255535554  0.11114474947495
 6  3.68734307320732 -2.99995493679368 -1.28432793729373
 6  5.28016444224422 -2.35866091369137  0.59672347114711
 6  6.57111198249825 -2.73931685688569 -0.03506203880388
 6  7.67179250285028 -1.77355671117112  0.62723841434143
 6  9.03204402570257 -1.93253808740874 -0.00610839333933
 6  9.59674605630563 -3.37124776517652  0.32137868016802
 6  10.12349292839284 -0.96592683008301  0.68426094159416
 6  11.38155545794579 -0.92698230513051 -0.18291705790579
 6  12.30686837543754  0.19080370787079  0.27726457405741
 6  13.58749120492049  0.51729659955996 -0.50143490669067
 6  14.59718801780178 -0.78392779537954 -0.65203935483548
 6  14.36243218281828  1.79397556915692 -0.03575283008301
 6  15.50327451785178  2.16121414961496 -0.97091208620862
 6  16.13617620202020  3.46023077587759 -0.65047566076608
 6  17.37343259235924  3.89115695729573 -1.44765870107011
 6  17.17882047174717  4.02766765846585 -2.91791401560156
 6  17.93828323442344  5.17745301060106 -0.85069452835284
 1 -2.72432815561556  1.04861913731373  3.40779124752475
 1 -6.16486446524652  5.64300968136814  0.58694768646865
 1 -8.90591099829983  1.02161246414642 -2.96307178597860
 1 -3.64369543434343 -3.33747906330633  1.67114517531753
 1 -2.11984910881088 -1.21317897949795  2.63881515761576
 1 -3.09774955405541 -2.84765792699270  4.57540108410841
 1 -3.31034182688269 -1.37481738613861  4.85870790059006
 1 -4.59815232693269 -2.19628870977098  3.88306225672567
 1 -2.35741105480548 -3.06769628692869 -0.43296392019202
 1 -1.60608844124412 -1.59616873317332  0.40128825042504
 1 -0.74518995249525 -2.99890118571857  2.32003622232223
 1 -1.36879160076008 -4.54783191439144  1.57093889188919
 1 -1.81115122892289  3.62683220762076  4.10243615331533
 1 -2.88527951805181  4.73250045604560  4.79402566026603
 1 -2.98750174517452  3.08355935343534  5.19425443144314
 1 -5.03380644454445  6.81160535493549  2.28714403580358
 1 -10.10659979347935  2.82451310841084 -3.27496074777478
 1 -10.02490328822882  4.78271211531153 -3.09438972967297
 1 -9.66377617741774  4.31854026802680 -5.18939414171417
 1 -8.26524603400340  4.93135288068807 -4.65075503050305
 1 -8.21662151115111  3.33549290809081 -4.72569249404941
 1 -8.26392398199820 -1.10509105200520 -4.57526852515251
 1 -8.59468045104511 -2.81586499159916 -4.35321795879588
 1 -9.67789786928693 -1.57205402880288 -3.31984889158916
 1 -4.14821217861786 -3.63983881048105 -1.41789507640764
 1  2.26800793379338 -5.81455939893989  0.86433239013901
 1  2.20865160856086 -4.91539851595159 -0.43125657525753
 1  3.78801092339234 -4.22857213901390  2.09045405300530
 1  2.70372535923592 -3.23209883098310 -1.65468800980098
 1  3.76616122942294 -2.08401196049605 -1.51854432493249
 1  4.41822399639964 -3.44454818401840 -1.97901682758276
 1  5.10951099199920 -1.34653107710771  0.31871375487549
 1  5.12029055635564 -2.32049368176818  1.64787966826683
 1  6.96081360806081 -3.91355454755476  0.11089897389739
 1  6.72964312471247 -2.35398300730073 -1.16204680018002
 1  7.20573950525052 -0.76455978107811  0.42745999149915
 1  7.81249335223522 -1.85845242834283  1.80853523882388
 1  9.03573768306831 -1.68304657985799 -1.13225656375638
 1  8.99565408410841 -4.23560233163316 -0.06353014541454
 1  10.50618995979598 -3.51400560266027 -0.36948706220622
 1  9.70491955335534 -3.52471356285629  1.31196163886389
 1  9.59266841744174 -0.00834510831083  0.58696406020602
 1  10.31047114461446 -1.11622815671567  1.62275181518152
 1  11.93460860216022 -1.71760179207921 -0.21821619481948
 1  11.04840092679268 -0.52092499739974 -1.21758309190919
 1  11.62276330983098  1.17767219641964  0.68726917171717
 1  12.57637246054605  0.18717990939094  1.45315359555956
 1  13.29749655035504  0.79968440074007 -1.58096033473347
 1  14.98396773507351 -1.07757597029703  0.26981266126613
 1  14.00318588958896 -1.64878389468947 -1.01413773527353
 1  15.36976796519652 -0.45859905810581 -1.22261915441544
 1  13.62582077627763  2.66686130523052 -0.00240202790279
 1  14.67543424372437  1.50482077127713  0.99087630153015
 1  16.32953460926093  1.45021363406341 -1.03330982168217
 1  15.12286787018702  2.03702761556156 -1.87895927562756
 1  15.26781818641864  4.11294667266727 -0.60992299039904
 1  16.30555332543254  3.26669331073107  0.32506240664066
 1  17.99111279267927  3.10348183938394 -1.26364544414441
 1  16.32905362576258  4.74297082598260 -3.04614697449745
 1  18.06779270277028  4.28822833613361 -3.51153575867587
 1  16.85534573477348  3.08525959595960 -3.30801883648365
 1  18.00648669586959  5.28364958245825  0.17678934313431
 1  18.94531205350535  5.19802395459546 -1.35180209460946
 1  17.35213676457646  6.01146064916492 -1.23628769006901
 1 -5.12308761016102 -7.93180261336134 -0.15203874157416
 1 -6.42793722402240 -6.97254434103410  0.77340084758476
 1 -4.82595076367637 -7.13120469606961  1.32419687628763
 8 -7.84100169176918  6.76196269706971 -0.44880266426643
 1 -9.07169546664666  6.17562320722072 -2.04596027882788

