%nproc=4
%Mem=4GB
# td=(NStates=1) iop(3/107=0140000000,3/108=0140000000) iop(3/107=0140000000,3/108=0140000000) CAM-B3LYP/6-31G(d,p) 

TD

0 1
12 -5.61279278587859  1.21275614991499  0.09417802300230
 6 -5.06182656985699 -2.12360082338234 -0.32696956375638
 6 -3.49912870197020  1.24310459525953  2.75585095839584
 6 -6.27654645034503  4.59618288248825  0.71431163996400
 6 -7.99175494259426  1.19806065676568 -2.50220789428943
 7 -4.37046129942994 -0.27711590339034  1.05397673647365
 6 -4.32338586608661 -1.59275297689769  0.68061041064106
 6 -3.15594871937194 -2.26902020482048  1.46308067176718
 6 -2.94345751675167 -1.26242913381338  2.66150270637064
 6 -3.60565799319932 -0.06753938163816  2.16791137633763
 6 -3.45260830023002 -1.81233467486749  3.98112081148115
 6 -1.95239043224322 -2.62781019031903  0.66760206570657
 6 -0.89890153365337 -3.38015559615962  1.55137872587259
 6  0.30368546904690 -3.76555039573957  0.81088928362836
 8  0.52314237853785 -3.36971428502850 -0.32413864806481
 8  1.15171201690169 -4.61243086038604  1.50880548784878
 7 -5.07414823112311  2.60996037293729  1.50054028572857
 6 -4.12459454925493  2.46719414111411  2.45642624592459
 6 -3.78776828052805  3.68251675387539  3.17196775297530
 6 -4.57817837053705  4.63484501280128  2.59093836513651
 6 -5.48061416561656  3.94675277047705  1.61239733203320
 6 -2.81592695579558  3.81404878067807  4.31993618301830
 6 -4.67074360496050  6.05988340884088  2.97925743054305
 8 -4.04224427242724  6.55985387338734  3.85387928782878
 7 -6.87826162606261  2.56728662446245 -0.80853250955096
 6 -6.99605232003200  3.88360797799780 -0.30594228292829
 6 -7.99575476187619  4.59708643344334 -1.18756286578658
 6 -8.51934138743874  3.63896082598260 -2.06567551195119
 6 -7.78072696319632  2.46095210401040 -1.84587053355336
 6 -8.39532252315232  5.96260617001700 -1.01085059385939
 6 -9.58420278357836  3.77760815901590 -3.14668930173017
 6 -8.85955740944094  4.07564571077108 -4.49566597059706
 7 -6.39640805980598 -0.20100511821182 -1.10935602760276
 6 -7.33063259285929 -0.01414748334833 -2.18392260296030
 6 -7.55408291549155 -1.22632433603360 -2.74883740634063
 6 -6.77725727452745 -2.05810538233823 -1.99883604930493
 6 -6.07972638803880 -1.38553211831183 -1.05979210961096
 6 -8.48314377217722 -1.59727985398540 -3.85515241144114
 6 -6.21878554565457 -3.57303288718872 -2.04792834793479
 8 -6.53710810631063 -4.51941964036404 -2.74580084518452
 6 -5.09305786788679 -3.54983303590359 -0.97073939373937
 6 -5.21585906330633 -4.75803124422442 -0.00383671187119
 8 -5.55588135973597 -4.61926093419342  1.14474083748375
 8 -5.00471016921692 -6.00590178657866 -0.55287843244324
 6 -5.25668323252325 -6.98596044934493  0.34943677347735
 6  2.39308028122812 -5.08086920712071  0.84158811321132
 6  3.41468600360036 -4.00520068096810  1.07954585438544
 6  4.11258064826483 -3.12596546664666  0.23343697869787
 6  3.76077041594159 -3.06456139743974 -1.16998650315031
 6  5.15958238403840 -2.33318836643664  0.70288408720872
 6  6.50847571887189 -2.74050697589759  0.10159162656266
 6  7.65491081468147 -1.78578793429343  0.54074976547655
 6  9.06506732803280 -2.02948778237824 -0.08262604510451
 6  9.59405578727873 -3.50460110051005  0.03010955325533
 6  10.00337091619162 -0.93314355175518  0.38420093559356
 6  11.28472577497750 -0.70867047394739 -0.56129489568957
 6  12.20038772737274  0.40281490899090  0.04171101870187
 6  13.52929538533853  0.40238510841084 -0.67089185238524
 6  14.42867116611661 -0.72327172977298 -0.31904605550555
 6  14.24251019061906  1.79261543314331 -0.20268952375238
 6  15.60066425682568  2.04778280648065 -0.99009400440044
 6  16.12509509390939  3.42253700650065 -0.68785939913991
 6  17.44107935703570  3.77978582018202 -1.31555549074907
 6  17.35061765146515  3.89048394009401 -2.83465568976898
 6  18.10351975807581  5.02138740404040 -0.71050050895090
 1 -2.89761548434844  1.23078735413541  3.53824429282928
 1 -6.49199717851785  5.75335071547155  0.98253724542454
 1 -8.81889229642964  1.23888419131913 -3.21576705550555
 1 -3.51910297509751 -3.09814512991299  1.78133619441944
 1 -1.88580570447045 -1.12614027562756  2.56966824292429
 1 -2.79504928402840 -2.74645780698070  4.31712525652565
 1 -3.37652844554455 -0.89555946034603  4.69353138293829
 1 -4.52775528722872 -1.92276135703570  3.96588053855386
 1 -2.26405171887189 -3.54201371867187 -0.11542216601660
 1 -1.56296412881288 -1.82801191749175 -0.00126200460046
 1 -0.51937737123712 -2.60825212081208  2.30545476417642
 1 -1.47454217581758 -4.27006413761376  1.96541833983398
 1 -2.04137425122512  3.40847037143714  3.97667357705771
 1 -2.75049603970397  4.93914112011201  4.54137039473947
 1 -3.02705570057006  3.15175617311731  5.29168417441744
 1 -5.42239530343034  6.56463065746575  2.30491581298130
 1 -10.07640677417742  2.73372402950295 -3.22606585828583
 1 -10.35691648954895  4.33516736083608 -2.71160145084509
 1 -9.50156995679568  4.22836125012501 -5.42202740504050
 1 -8.46616612601260  5.09651939733973 -4.51715167016702
 1 -8.14734458345835  3.18960831963196 -4.96069599439944
 1 -8.02734032363236 -1.44904544744474 -4.99839083738374
 1 -8.82923390639064 -2.71977538263826 -3.70405304230423
 1 -9.59762984248425 -1.29007583098310 -3.81340824752475
 1 -4.12610996839684 -3.64897972457246 -1.34767805470547
 1  2.63762489548955 -6.12261020402040  1.20070602750275
 1  2.08570931433143 -5.05355233133313 -0.27352080168017
 1  3.77859998229823 -4.00174945674568  2.25733074067407
 1  2.73980896759676 -3.42804842594259 -1.12852539353935
 1  4.00862547584758 -2.05135869516952 -1.68648111861186
 1  4.41787396139614 -3.61501523072307 -1.81216014191419
 1  5.09647968886889 -1.20458688268827  0.25877776127613
 1  5.22945147244724 -2.21014264666467  1.84195907620762
 1  6.77912543924392 -3.90447363946395  0.36710459445945
 1  6.29567972837284 -2.78564617361736 -1.00440103560356
 1  7.53370230153015 -0.73052637773777  0.49123636913691
 1  7.76583868676868 -1.84491107420742  1.62436682198220
 1  8.92866697599760 -2.00827910311031 -1.27067040514051
 1  8.92618713741374 -4.24428319971997 -0.36683047544755
 1  10.68061740254026 -3.55340954305431 -0.36074618811881
 1  9.65618467986799 -3.57364845634564  1.07994843754375
 1  9.38381753235324  0.01556728292829  0.27115247904790
 1  10.22912300980098 -1.03463999789979  1.54099363936394
 1  11.82285742704270 -1.62220225212521 -0.52682705590559
 1  11.06611269796980 -0.40534343924392 -1.62769410301030
 1  11.43216424992499  1.24180861006101 -0.26664621982198
 1  12.24712953625362  0.13634482588259  1.10042832303230
 1  13.39930673137314  0.53548798109811 -1.69246148484848
 1  14.36128546684668 -0.95924413711371  0.84589026902690
 1  14.07765333633363 -1.69296831313131 -0.84310063156316
 1  15.46687767616762 -0.69550274847485 -0.69603649614961
 1  13.62106030023002  2.52937755685569 -0.44914670237024
 1  14.64798149844985  1.65586587578758  0.88602581648165
 1  16.44937659345934  1.18490710341034 -0.72345883658366
 1  15.34027961136114  1.99206311911191 -2.11103248294829
 1  15.26809821442144  4.10920629862986 -1.01194319241924
 1  16.43714648474848  3.41098774017402  0.31672157255726
 1  18.07019070047005  2.83791528272827 -1.30453953355336
 1  16.61809252965297  4.56960348924892 -3.24108646844684
 1  18.37906382988299  4.14120363366337 -3.37536214131413
 1  17.05596579677968  3.06159722972297 -3.31782981758176
 1  17.91180722792279  5.06803802130213  0.48716038023802
 1  19.24342186448645  5.09925407760776 -0.85858277267727
 1  17.65569712061206  5.91366086918692 -1.31970603190319
 1 -5.17827312871287 -7.92122155525553 -0.32890642834283
 1 -6.36809123942394 -7.14362144874488  0.76844035153515
 1 -4.57055522412241 -6.88457003260326  1.29693415001500
 8 -7.98776636823682  6.87391389218922 -0.31783956795680
 1 -8.95255355245525  6.22105775067507 -1.86678236103610

