%nproc=4
%Mem=2GB
# td=(NStates=1) iop(3/107=0140000000,3/108=0140000000) iop(3/107=0140000000,3/108=0140000000) CAM-B3LYP/6-31G(d,p) 

TD

0 1
12 -6.69559213131313  0.62960210431043  0.12508012751275
 6 -4.49441654815482 -2.12587100890089  0.42854313131313
 6 -3.95083689908991  2.62934456755676  0.79820270187019
 6 -8.79451215591559  3.24181820592059 -0.32754225592559
 6 -9.31311940954095 -1.58159118871887 -0.68069812851285
 7 -4.56901197309731  0.22742213991399  0.56917594969497
 6 -3.90753801940194 -1.00149985678568  0.59952050745075
 6 -2.45400881948195 -0.75622738193819  1.16698876117612
 6 -2.53211317711771  0.76880702950295  1.35551771427143
 6 -3.82214847774777  1.25183526872687  0.88474324902490
 6 -2.18207449314931  1.10071186708671  2.55991055385539
 6 -1.58485723412341 -1.21315387878788 -0.12861153485349
 6 -0.25982410071007 -1.67853956055606  0.40883995749575
 6  0.80763184238424 -1.68408564546455 -0.90899907370737
 8  0.73371343944394 -1.11105371787179 -1.77090808100810
 8  1.84129441604160 -2.52674297289729 -0.39926484898490
 7 -6.43447518971897  2.48922929292929  0.18902265016502
 6 -5.24182474337434  3.11582022522252  0.44412070827083
 6 -5.45167938313831  4.73211289608961  0.60591546014601
 6 -6.83897461086109  4.88110420092009  0.39470605390539
 6 -7.43112481638164  3.57644645304530  0.00759559095910
 6 -4.45741066136614  5.68083551405141  0.98683635163516
 6 -7.70243180448045  6.09966688678868  0.28668819251925
 8 -7.09930384658466  7.17891950855086  0.55918377517752
 7 -8.64987854135413  0.77494835403540 -0.34019666876688
 6 -9.26317999039904  1.98836357165717 -0.50121117341734
 6 -10.71262789308931  1.79981985308531 -0.83953973517352
 6 -10.92054641214121  0.41306221062106 -0.92027288278828
 6 -9.61569323262326 -0.23322148534853 -0.60231230793079
 6 -11.63856063136314  2.75921211431143 -0.97603225402540
 6 -12.08855197569757 -0.36188975127513 -1.29053718741874
 6 -11.98515537763776 -0.72171433663366 -2.82518531323132
 7 -7.01022750565057 -1.44390695199520 -0.06938958345835
 6 -8.26614927652765 -2.31526152285229 -0.53078627662766
 6 -7.73330091519152 -3.69905722812281 -0.39645065516552
 6 -6.43997961916192 -3.59531869276928 -0.13925218581858
 6 -5.89764605330533 -2.20691950645064  0.09849603390339
 6 -8.58011653515351 -4.62403978177818 -0.89014183008301
 6 -5.18177438193819 -4.57194299239924  0.00789881558156
 8 -5.16112786148615 -5.77283782208221  0.00805131173117
 6 -4.14812853825383 -3.64224478367837  0.44342899009901
 6 -3.52445595649565 -3.90002617811781  1.78070778377838
 8 -4.12212745284528 -3.81934866966697  2.92565123492349
 8 -2.32725440034003 -3.89368567386739  1.80724066326633
 6 -1.66838536063606 -3.93435852595259  3.20109453465346
 6  3.04189608240824 -2.55984116101610 -1.27299854395440
 6  4.01298506590659 -1.41700870197020 -0.86592212451245
 6  5.12688344374437 -1.15679255065507 -1.64097029862986
 6  5.23198718251825 -1.49733286798680 -2.88690567276728
 6  6.12546637123712 -0.00134778767877 -1.14994155265527
 6  7.30135882988299 -0.75966174827483 -0.61619835713571
 6  8.31760432073207  0.36684231883188 -0.40272875337534
 6  9.70496358575858 -0.13080000030003  0.13569526382638
 6  9.50958847514752 -0.80808962366237  1.42602697149715
 6  10.80857318731873  0.78457331153115  0.28756359475948
 6  12.20891616211621  0.11305261246125  0.57731604280428
 6  13.35326686928693  1.36652392709271  0.58636153455346
 6  14.75997233243324  0.61222450055006  0.59249391149115
 6  15.07774276237624 -0.12998527902790  1.89196912091209
 6  15.77947757615762  1.57646254825483  0.04463766906691
 6  17.23838331643164  0.92306753115312  0.01551467756776
 6  18.02384193159316  2.05356254745474 -0.50490063686369
 6  19.48884108520852  1.36702519731973 -0.75491557525753
 6  19.75553535483548  0.33260869116912 -1.86092188338834
 6  20.54359152805281  2.60306172417242 -0.81801689758976
 1 -3.50008064636464  3.43097434843484  0.96605600730073
 1 -9.49187316981698  3.89716880198020 -0.50766440034003
 1 -9.99271176277628 -2.25508590789079 -1.12864569046905
 1 -2.15198771557156 -1.31742936073607  2.00997104540454
 1 -2.01235057365737  1.03396387258726  0.70880733413341
 1 -1.19639102280228  0.64915322972297  2.53061377247725
 1 -1.99555772967297  2.28852742914291  2.58033415121512
 1 -2.71990432293229  0.75068295359536  3.43681955105511
 1 -2.09086810711071 -2.26755802880288 -0.55255304210421
 1 -1.73140830983098 -0.52198367126713 -0.74607439823982
 1  0.03206120442044 -1.12372380568057  1.29828569376938
 1 -0.52185590539054 -2.82765909970997  0.87131736383638
 1 -3.48574310471047  5.89084691259126  0.30687564526453
 1 -4.99084936553655  6.71454413031303  1.06657356345635
 1 -4.20241126932693  5.45794475547555  1.79012678497850
 1 -8.65250826492649  6.32325743494349 -0.24509088488849
 1 -12.53768332193219 -1.30279114661466 -0.64933936113611
 1 -12.94277049204920  0.31459785958596 -1.01648928532853
 1 -12.55709353245325 -1.46638875427543 -3.14430154725473
 1 -12.35227219101910 -0.01677425592559 -3.15504767426743
 1 -11.16258308270827 -1.09050236723672 -3.31219782718272
 1 -8.71699088238824 -4.58699525512551 -2.17366959495950
 1 -8.27994320892089 -5.49031904450445 -0.50077972987299
 1 -9.66187346734673 -4.42864482568257 -0.52528791929193
 1 -3.24201378277828 -3.52039576447645 -0.30485879267927
 1  3.75729734513451 -3.44940221402140 -1.23186890399040
 1  2.69870415921592 -2.33362927792779 -2.09412964826483
 1  3.78249557725773 -0.92714546294629  0.11057465906591
 1  4.78392144914492 -1.20621409390939 -3.57757787278728
 1  6.16004958335834 -1.17101577697770 -2.96622784668467
 1  5.08027185458546 -2.19088170247025 -3.18442262606261
 1  6.43478390029003  0.77308264566457 -1.74665728292829
 1  5.49493460286029  0.49051459925993 -0.43531779517952
 1  7.04202538143814 -1.66588478557856 -0.10495877427743
 1  7.54291969036904 -1.27368615891589 -1.61737121302130
 1  8.85763789518952  0.85082567736774 -1.10597338263826
 1  7.81619011711171  0.92119730793079  0.22848855725573
 1  9.84005645274527 -0.84037148084809 -0.60011716931693
 1  8.96752899719972 -1.85120393609361  1.35187354815482
 1  10.52088815821582 -0.94076795799580  1.63487537893789
 1  9.22223543514352 -0.23923514591459  2.20522182728273
 1  11.15602924072407  1.68867162706271 -0.45650282188219
 1  10.56057580418042  1.38338721432143  0.98496237653765
 1  12.50371791399140 -0.10780321982198  1.77089077237724
 1  11.80913306730673 -0.68074629522952 -0.09155215271527
 1  13.23588845884588  1.83011255625563 -0.40866977157716
 1  13.01988403320332  2.24122837413741  1.34566035543554
 1  14.97041846764676 -0.24125164116412 -0.05181337253725
 1  14.93864376427643  0.73265366086609  2.72143491649165
 1  14.44424169766977 -1.15645331723172  2.17983548164817
 1  16.20081711481148 -0.23350693379338  1.79850632833283
 1  15.47820895579558  1.95816580998100 -0.94556453115312
 1  15.69906393899390  2.72110164566457  0.77301562476248
 1  17.53616493159316  0.61555472607261  0.91396158285829
 1  17.26271379557956  0.22912108130813 -0.55382676007601
 1  17.62002700980098  2.37416396419642 -1.65228821712171
 1  17.82807280338034  2.94540844774477  0.34802147264726
 1  19.91598415961596  0.77947079327933  0.24444779557956
 1  19.89576789478948  1.03864891449145 -2.87206933213321
 1  20.80198448844884  0.15438363656366 -1.85094922832283
 1  18.97693042004201 -0.60962868126813 -1.82208028272827
 1  20.49349612821282  3.10452003110311  0.19651040464046
 1  21.47921566186619  2.25754233693369 -1.05745846084608
 1  20.31185783868387  3.20500798799880 -1.17232202850285
 1 -0.51374699979998 -4.87505025442544  2.72875122312231
 1 -2.25147482848285 -4.47413468716872  4.01616225282528
 1 -1.25113912721272 -2.63171164826483  3.49456360956096
 8 -11.40267864216422  3.97145194439444 -0.99613142684268
 1 -12.70157066856686  2.59745098519852 -1.34336494149415

