%nproc=4
%Mem=2GB
# td=(NStates=1) iop(3/107=0140000000,3/108=0140000000) iop(3/107=0140000000,3/108=0140000000) CAM-B3LYP/6-31G(d,p) 

TD

0 1
12 -6.73118569066907  0.58415755985599  0.03799141864186
 6 -4.71212831933193 -2.18900732253225  0.39917019401940
 6 -4.22347416281628  2.67482911601160  0.93351623322332
 6 -9.06279898459846  3.36068009210921 -0.04640414211421
 6 -9.39740783838384 -1.69897292689269 -0.59780983968397
 7 -4.67303237513751  0.29094849254926  0.52011104320432
 6 -4.12267953355336 -0.84666437323732  0.59280983638364
 6 -2.48367178577858 -0.56391815101510  0.95085714801480
 6 -2.41337130293029  0.85889603840384  1.19713187568757
 6 -3.80169643254325  1.38087817301730  0.83196797149715
 6 -2.12761904760476  1.06109790569057  2.52986754955496
 6 -1.56501524992499 -1.33980654405441 -0.00228890259026
 6 -0.01544966326633 -0.83857556415642  0.55547462096210
 6  0.84963604280428 -1.17095433233323 -0.66964513831383
 8  0.83960402850285 -0.93743635613561 -1.81138212841284
 8  1.81678196479648 -2.12616291489149 -0.23270819331933
 7 -6.49734147634763  2.59168953895390  0.18359210711071
 6 -5.35588614951495  3.21729037223722  0.46845314151415
 6 -5.63463767896790  4.83929361416142  0.39305417401740
 6 -7.09384009740974  4.89504559505951  0.27626420972097
 6 -7.68352005590559  3.57680648904890  0.09311414281428
 6 -4.71653657395740  5.86011344184418  0.69537720572057
 6 -7.84465602690269  6.14147106720672  0.31104062776278
 8 -7.24697861406141  7.12448406500650  0.27643550035003
 7 -8.84754830833083  0.76801766096610 -0.23231588068807
 6 -9.48769244164416  1.88491322662266 -0.41311236353635
 6 -10.98736536683668  1.69371924302430 -0.65371115231523
 6 -11.01511586908691  0.35600650505050 -0.90870172567257
 6 -9.69693135643564 -0.38628679187919 -0.62863494019402
 6 -12.09372614791479  2.78255444854485 -1.02420707150715
 6 -12.22072519301930 -0.41444500680068 -1.47202533623362
 6 -11.85766262836284 -0.59321148634863 -2.82369516421642
 7 -6.95035151805181 -1.41187374867487 -0.21428407290729
 6 -8.15174783638364 -2.15417541424142 -0.48882208020802
 6 -7.80749833493349 -3.61357868026803 -0.40527153725373
 6 -6.50705632683268 -3.67334649554955 -0.10599886048605
 6 -5.93018930763076 -2.25350416491649  0.10118630293029
 6 -8.62499102260226 -4.91925930373037 -0.48265108100810
 6 -5.38812501700170 -4.50605640374037  0.26906493219322
 8 -5.17644939363936 -5.74455499379938  0.09557006360636
 6 -4.16140986638664 -3.55103566276628  0.47000164736474
 6 -3.47285079597960 -3.97988416391639  1.86489620262026
 8 -3.93568880898090 -4.18172490729073  2.95848451825183
 8 -2.15812748764877 -3.94992129742974  1.58564850405041
 6 -1.19707822992299 -4.18466355645565  2.76488091329133
 6  2.88588048084809 -2.30455563246325 -1.38986023012301
 6  4.04526829422942 -1.39574657575758 -0.80867639993999
 6  5.11866262166217 -1.02711958335834 -1.50462666426643
 6  5.46408039183918 -1.47909104380438 -2.84091107330733
 6  6.07287111171117 -0.03037068996900 -1.01151771027103
 6  7.39932862686269 -0.80905668776878 -0.60782752005201
 6  8.56839940024002  0.17089272387239 -0.16202468296830
 6  9.90837392679268 -0.44126104640464  0.12906460076008
 6  9.85656317261726 -1.47090590529053  1.40776514531453
 6  10.96378870887089  0.65219007320732  0.42008684708471
 6  12.32165743624362  0.09519082628263  0.24360267146715
 6  13.46016755935594  1.09613688838884  0.44024692309231
 6  14.84934126932693  0.48586186428643  0.47757241934193
 6  15.04853984208421 -0.24877715821582  1.77084700870087
 6  15.93074270267027  1.63661856385639  0.09258246354635
 6  17.30468994709471  0.75557078147815 -0.14457133103310
 6  18.43336288368837  1.90781797299730 -0.39709985678568
 6  19.80424262536254  1.33861235603560 -0.73374345804580
 6  19.85039484078408  0.71326675697570 -2.02873866506651
 6  20.97330449934994  2.38079949794980 -0.50078517441744
 1 -3.53024366266627  3.32586383738374  1.15023442514251
 1 -9.77462144464446  4.24214329942994 -0.40383401730173
 1 -10.28654114571457 -2.36445684498450 -0.56344917081708
 1 -2.20192270907091 -1.33753137093709  1.87421747004701
 1 -1.52193153175318  1.14695517171717  0.41616807020702
 1 -1.15212659635964  0.71735004940494  2.98988970007001
 1 -1.55282345624562  1.96560513691369  2.88355447324732
 1 -2.97133946644664  0.89040692599260  3.28300416951695
 1 -1.96540556085608 -2.38105937893789 -0.16707449424942
 1 -2.13948911791179 -0.61250272317232 -1.11496128692869
 1  0.03879187748775  0.32501106780678  0.84715058025803
 1  0.23804008420842 -1.68058439223922  1.43937416951695
 1 -3.74461899229923  5.83122094999500  0.33105806350635
 1 -5.34462474307431  6.91531420732073  0.61757866396640
 1 -4.52211323952395  5.72455141614161  1.81108888118812
 1 -8.94947796189619  5.93335844504450  0.13989761396140
 1 -12.35085463906391 -1.25866673417342 -0.91096552375238
 1 -13.68060427542754  0.24031043084308 -1.28012564896490
 1 -13.02329015211521 -1.21211332673267 -3.25126224332433
 1 -12.21343830763076  0.62275969746975 -2.96443861336134
 1 -10.81583840824082 -1.26477979497950 -3.04009061646165
 1 -9.68251743504350 -4.70695725132513 -1.19430165816582
 1 -8.20125534013401 -5.99705971857186 -0.54346399829983
 1 -9.33601088108811 -4.97007896909691  0.26894150365037
 1 -3.31715129652965 -3.59513323822382 -0.60182848964896
 1  3.34094570997100 -3.17730500430043 -1.18857457455746
 1  2.45510979977998 -2.21151706670667 -2.42787302260226
 1  3.85483281098110 -0.89846259465947  0.42976657825783
 1  4.65779883688369 -1.52927640014002 -3.96183629862986
 1  6.25708928732873 -1.02075075047505 -3.30986221012101
 1  5.53568739613961 -2.45520813511351 -3.02529671347135
 1  6.30776119801980  0.60358569596960 -2.15822844004400
 1  5.66114122352235  1.09457500530053  0.00725646224622
 1  7.22218339723972 -1.53653185028503  0.31091281288129
 1  7.66035143354335 -1.70043883418342 -1.31794127002700
 1  8.54504663606361  1.09641023582358 -1.10979376467647
 1  8.23127162526253  0.48631381958196  0.61982769116912
 1  9.92527497459746 -1.05261270497050 -0.86711386898690
 1  8.89743198749875 -2.07003581928193  1.25965432623262
 1  10.40597666706671 -2.35345922712271  1.14603649504950
 1  9.63837704930493 -0.58071929432943  2.56328763386339
 1  11.01431506930693  1.81082384228423 -0.49522669426943
 1  10.78540828742874  1.26648552415241  1.37469134943494
 1  12.53735127732773 -0.69285172467247  0.88084176747675
 1  12.12459461346135 -0.56406462706271 -0.65249824732473
 1  13.36968183818382  1.94267381238124 -0.26433533813381
 1  13.42215426022602  1.86611086238624  1.32312810221022
 1  14.80331175697570 -0.38896641264126 -0.10018821002100
 1  14.91357125702570  0.38896929242924  2.84805757875788
 1  14.06974424792479 -0.60770844274427  2.10126762486249
 1  16.07567460056006 -0.92870645374537  2.17646412411241
 1  15.74834596949695  1.75884587798780 -1.05700567526753
 1  15.84500853345335  2.89618915441544  0.79502782598260
 1  17.71345266036603  0.06551972257226  0.74834502120212
 1  17.18807633183318  0.16667483668367 -1.09938131553155
 1  18.14536954405441  2.63299984778478 -1.33870685898590
 1  18.56274627072708  2.37051095799580  0.55790246074607
 1  20.29433199439944  0.61891473767377 -0.30793744294429
 1  19.48743706170617  1.46028107770777 -2.75558768396840
 1  20.97325161516152  0.56805500370037 -2.69455358875888
 1  19.20152287928793 -0.20266798519852 -2.15866394109411
 1  21.42555933453345  2.35936551565157  0.49141989558956
 1  22.04717245754576  2.38339492219222 -0.93184589958996
 1  20.60983763666367  3.46826431363136 -0.69320411671167
 1 -0.25103072817282 -3.59393214261426  2.21061940994099
 1 -1.41145082608261 -5.53486075977598  2.79073971057106
 1 -1.81890590389039 -3.97691616871687  3.74861901510151
 8 -11.60168854315432  3.96125092429243 -1.08701051475147
 1 -13.18653916541654  2.41729296939694 -0.98937954295429

