%nproc=4
%Mem=4GB
# td=(NStates=1) iop(3/107=0140000000,3/108=0140000000) iop(3/107=0140000000,3/108=0140000000) CAM-B3LYP/6-31G(d,p) 

TD

0 1
12 -5.66056756335634  1.22642751705171  0.18032663786379
 6 -5.06995738293829 -2.11959042234223 -0.31114798159816
 6 -3.40048883798380  1.09998028282828  2.71826720002000
 6 -6.22778157385739  4.50385364956496  0.76343655245525
 6 -8.04060982808281  1.23583443414341 -2.38150582408241
 7 -4.45801005430543 -0.30495868766877  1.04426576537654
 6 -4.29648317581758 -1.62973667526753  0.60989333893389
 6 -3.28770189468947 -2.39426272907291  1.42988735243524
 6 -2.91083425442544 -1.44406729762976  2.50962751885189
 6 -3.59342677007701 -0.08181080878088  2.08072265746575
 6 -3.59986302570257 -1.83492693409341  3.97375007440744
 6 -2.06372156535654 -2.67220462976298  0.56363166866687
 6 -0.97719936343634 -3.46141372197220  1.33173676167617
 6  0.26099119961996 -3.87985182588259  0.46157435213521
 8  0.59897996229623 -3.36301361496150 -0.60825705990599
 8  1.00373721942194 -4.69428904620462  1.23438804610461
 7 -4.92743355965597  2.54540391729173  1.48141837353735
 6 -4.02656474627463  2.38142556425643  2.43831443474347
 6 -3.68162766646665  3.63016151835183  3.12544310051005
 6 -4.53300385308531  4.56800832913291  2.50480975227523
 6 -5.30569667386739  3.94494258945895  1.44415050735074
 6 -2.69755511861186  3.86429380518052  4.27398158755876
 6 -4.60789732033203  5.94052147264726  2.79650915571557
 8 -3.94038408640864  6.64636252425242  3.61798569846985
 7 -6.94006780668067  2.55882577837784 -0.69661131743174
 6 -7.02590530533053  3.90170978817882 -0.29423111181118
 6 -7.95477066346635  4.61920864566457 -1.18284239373937
 6 -8.50559001230123  3.70447737763776 -2.05814475887589
 6 -7.80384927542754  2.41376738553855 -1.78236418291829
 6 -8.46679967086709  5.96287619701970 -0.98096760556056
 6 -9.49190355365537  3.85590598879888 -3.08942357515752
 6 -8.88517997169717  4.15057320352035 -4.53109951395140
 7 -6.30766918591859 -0.17019203690369 -1.14335942794279
 6 -7.39781931153115  0.04195812721272 -2.09469368006801
 6 -7.60369787698770 -1.26764846844684 -2.71651417401740
 6 -6.74754430323032 -2.14651422322232 -2.02691885758576
 6 -6.03524193959396 -1.44504806990699 -1.09015514591459
 6 -8.57526298409841 -1.67919804580458 -3.80453734993499
 6 -6.27283095019502 -3.55990157405741 -1.99974352945295
 8 -6.56944133963396 -4.56050374877488 -2.56624288938894
 6 -5.06835539763976 -3.59270732333233 -0.92705502530253
 6 -5.36862433983398 -4.61947738883888  0.25446911871187
 8 -5.85063083468347 -4.27490649874987  1.37364372777278
 8 -5.04775447364737 -5.79177037343734 -0.20178332293229
 6 -5.26236380058006 -6.81518337163716  0.76566839663966
 6  2.37272824602460 -5.06354747494749  0.50859481388139
 6  3.43575811081108 -4.13785394629463  1.00169806960696
 6  4.10975036523652 -3.39016188628863  0.13023665866587
 6  3.89972431133113 -3.37681262256226 -1.33148265276528
 6  5.23295972177218 -2.48990403800380  0.60869466826683
 6  6.60234510581058 -2.77548047324732 -0.02031056365637
 6  7.74482980658066 -1.85077443294329  0.55864155465547
 6  9.11710253155316 -1.96124095769577 -0.15553333583358
 6  9.64849123082308 -3.45337597799780  0.07610415271527
 6  10.04516509560956 -0.93463370077008  0.35707822332233
 6  11.30356765916592 -0.73738334523452 -0.29170793699370
 6  12.26421411001100  0.42995762326233  0.21191803940394
 6  13.65772822862286  0.43885875577558 -0.48848361156116
 6  14.54228252725273 -0.82009141174117 -0.01712586348635
 6  14.31199713931393  1.82891906350635 -0.24394364916492
 6  15.54668885928593  2.10510853905391 -0.97244223922392
 6  16.09529211361136  3.59301405420542 -0.67166777997800
 6  17.43106835593559  3.90100794239424 -1.30602453765377
 6  17.27297988768877  4.02332722442244 -2.79996222042204
 6  17.88876828292829  5.25317058235824 -0.62260171907191
 1 -2.74752047484748  1.25876015141514  3.53685415381538
 1 -6.58554653345335  5.48556393679368  0.87675666736674
 1 -8.69221962916292  1.25393569646965 -3.09871535033503
 1 -3.65864692949295 -3.38739405480548  1.66517457825783
 1 -2.02145926982698 -1.09080674227423  2.49539081518152
 1 -2.94355413451345 -2.64192735393539  4.31740528452845
 1 -3.61145193789379 -0.92085198959896  4.70036206600660
 1 -4.57369988168817 -2.20709979087909  3.82992694319432
 1 -2.32727804150415 -3.18106762406241 -0.39405002880288
 1 -1.68448628102810 -1.80937005330533 -0.05731761016102
 1 -0.49388482198220 -2.59702099769977  1.95821003970397
 1 -1.46668138973897 -4.40007713891389  1.83442524052405
 1 -1.69651976577658  3.81438096249625  3.98966487618762
 1 -3.04809579967997  4.93562076807681  4.72345860356036
 1 -2.76384937993799  3.11365236273627  5.14880988698870
 1 -5.42875593949395  6.51489568396840  2.38422374377438
 1 -10.19162829632963  2.85300595769577 -3.08879213091309
 1 -10.14928572647265  4.67851169526953 -2.77252754345435
 1 -9.74471427122712  4.38326674067407 -5.10390559285929
 1 -8.13134264366437  4.93292303770377 -4.38594854985499
 1 -8.16322617161716  3.26331569036904 -4.81132105690569
 1 -8.45815340494049 -0.85417596049605 -4.73988498679868
 1 -8.57517850085009 -2.90345375047505 -4.05526816381638
 1 -9.73767384688469 -1.40172699609961 -3.53441034773477
 1 -4.03373073047305 -3.74657948454846 -1.10625391229123
 1  2.37950908390839 -6.14663260626063  0.81290724762476
 1  2.01259200260026 -4.76162313841384 -0.47631108070807
 1  3.71819394169417 -4.08076735853585  1.95214022162216
 1  2.86070105680568 -3.36031165226523 -1.55023756475648
 1  4.23634824812481 -2.43649720902090 -1.86336880738074
 1  4.13613578757876 -4.45640937013701 -1.75357428332833
 1  5.14650469136914 -1.51651807580758  0.18368025152515
 1  5.37733626092609 -2.56698833123312  1.67766264656466
 1  6.84522204890489 -3.98659185128513  0.11338922292229
 1  6.52528268866887 -2.49920752975298 -1.05325592109211
 1  7.39664859615962 -0.84864818991899  0.40325757125713
 1  7.90088219111911 -2.15599218231823  1.60143452875287
 1  9.08816292559256 -1.77404567976798 -1.33236657475748
 1  8.95754027272727 -4.22585135653565 -0.43839763216322
 1  10.64384372517252 -3.76525072717272 -0.40466057955796
 1  9.57819688108811 -3.74248534003400  1.11425186788679
 1  9.53135228582858  0.02308803500350  0.25484084788479
 1  10.35810590809081 -1.01235776967697  1.46729626962696
 1  11.91689683098310 -1.66135616751675 -0.32494686788679
 1  11.02292837953796 -0.67402030693069 -1.50070140374037
 1  11.61204223772377  1.30872530173017  0.05691613641364
 1  12.40546536983698  0.19172036343634  1.05642392259226
 1  13.34622142284228  0.43099753205321 -1.68572081078108
 1  14.55790512881288 -0.74878309100910  1.09096477647765
 1  14.04420999199920 -1.74135315161516 -0.35450177167717
 1  15.64843583198320 -0.75289848804880 -0.49038593109311
 1  13.70341853605361  2.70772539163916 -0.46383817151715
 1  14.36046274657466  1.86567685688569  0.90982819671967
 1  16.32790444624462  1.25033364606461 -0.65418190889089
 1  15.44594017741774  1.92602651545155 -1.96022740244024
 1  15.33320472507251  4.45216059405941 -0.91555355345535
 1  16.15738850895090  3.63754039543954  0.37671757215722
 1  18.02308598999900  3.04211570277028 -1.05108418801880
 1  16.56917763816381  4.81153768266827 -3.01292365216522
 1  18.22787871137114  4.30314982828283 -3.27230183528353
 1  16.98163836403640  2.84023509350935 -3.29203723832383
 1  18.21171721892189  5.07734895239524  0.40398206240624
 1  18.89410693299330  5.72580673287329 -1.11060797519752
 1  16.99404095499550  6.09914941804180 -0.53740780208021
 1 -4.98680398179818 -7.76806623972397  0.32789925222522
 1 -6.36586101640164 -6.98773586018602  0.96694020152015
 1 -4.54739290789079 -6.41276285188519  1.74445890249025
 8 -7.94568215981598  6.90190669146915 -0.34487227122712
 1 -9.30091838893889  6.34418006290629 -1.70825650845084

