%nproc=4
%Mem=4GB
# td=(NStates=1) iop(3/107=0140000000,3/108=0140000000) iop(3/107=0140000000,3/108=0140000000) CAM-B3LYP/6-31G(d,p) 

TD

0 1
12 -5.61258276487649  1.27229210351035  0.28605721092109
 6 -5.03701408860886 -2.14686314961496 -0.35285215201520
 6 -3.40285907500750  1.27283756855686  2.73086846014601
 6 -6.21948074377438  4.48669193339334  0.52827303610361
 6 -8.10737650475047  1.11453230393039 -2.27481515501550
 7 -4.32705695899590 -0.25735392719272  1.00657199599960
 6 -4.19869339683968 -1.61413511511151  0.67575992559256
 6 -3.11685480998100 -2.25026832963296  1.58910327402740
 6 -2.82787595859586 -1.24589748064806  2.66700325642564
 6 -3.52598002540254  0.04884225652565  2.10693527872787
 6 -3.42650568996900 -1.66300974237424  3.98991169056906
 6 -1.83292848604861 -2.57102451175118  0.76814211971197
 6 -0.91584322782278 -3.40514809540954  1.47892148014802
 6  0.30374547504750 -3.84010785148515  0.60006820152015
 8  0.47887795209521 -3.47206452005201 -0.43826006020602
 8  1.03764060976098 -4.83760337763776  1.27657226452645
 7 -4.82293310961096  2.70675005190519  1.47827805950595
 6 -3.94986707650765  2.50477789948995  2.50333093639364
 6 -3.69734923862386  3.77526602880288  3.17599815601560
 6 -4.59555010771077  4.68110963926393  2.63092236353635
 6 -5.27736384058406  4.05379347454745  1.48179427172717
 6 -2.79455481858186  3.89105648144814  4.30541473087309
 6 -4.87036356695670  6.06596401690169  3.08030753555356
 8 -4.24271431943194  6.59798768676868  3.89448334823482
 7 -6.94110791069107  2.62045194099410 -0.74958661496150
 6 -7.01576429122912  3.88372798999900 -0.41594328302830
 6 -7.95194038043804  4.56546327112711 -1.22739684918492
 6 -8.56695614891489  3.63023995389539 -2.04313325772577
 6 -7.86615550605060  2.42015802460246 -1.71511745824582
 6 -8.34826781768177  6.00470037943794 -1.29874938373837
 6 -9.47397176047605  3.92350274847485 -3.17725235803580
 6 -8.83942539623962  4.02495064126413 -4.55444184818482
 7 -6.39310772977298 -0.14139915761576 -1.02521761376138
 6 -7.44665419501950 -0.01951802040204 -2.02856706740674
 6 -7.60605811301130 -1.37609931353135 -2.64168669126913
 6 -6.70379992879288 -2.21116068786879 -2.03802996869687
 6 -5.94541295669567 -1.36036960206021 -1.16074220462046
 6 -8.58103356115612 -1.71212133813381 -3.80561745794579
 6 -6.17482114921492 -3.61940752465247 -2.00747430253025
 8 -6.49674406990699 -4.47930562896290 -2.63951021612161
 6 -4.97983654575458 -3.51131918451845 -0.88061038083808
 6 -5.31253873127313 -4.64029947104711  0.05432910471047
 8 -5.57785355695570 -4.52435144324433  1.27378374177418
 8 -4.95667536573657 -5.81374257065707 -0.42969611421142
 6 -5.20688825302530 -6.95823767706771  0.41836366616662
 6  2.33784475767577 -5.05994711491149  0.60479443384338
 6  3.45574010901090 -4.25003516441644  1.03381128092809
 6  4.01216060626063 -3.39634250435043  0.15566920192019
 6  3.67595193409341 -3.36143108440844 -1.32135163966397
 6  5.16885331113111 -2.47863291089109  0.57260105890589
 6  6.51716658795880 -2.71122404760476 -0.10809934253425
 6  7.71011633523352 -1.91062041754175  0.41031672217222
 6  9.10864168546855 -2.07309214281428 -0.19581736423642
 6  9.63030941264127 -3.47918855925593  0.00328687098710
 6  10.02274285338534 -1.06821705910591  0.42906542204220
 6  11.37593489588959 -1.03530313721372 -0.33350211641164
 6  12.22310999959996  0.22541716921692  0.13717056465647
 6  13.57307976377638  0.42689755965597 -0.64242900610061
 6  14.59145744474447 -0.73032243484348 -0.42448659955996
 6  14.09688562816282  1.75587175877588 -0.21372062686269
 6  15.45702989338934  2.15645367356736 -0.96245124012401
 6  16.01621420582058  3.49266401920192 -0.45355596879688
 6  17.31441669076908  3.84860270187019 -1.18345228042804
 6  17.16067865756576  3.96804169586959 -2.71308353255326
 6  17.72480188628863  5.27964322962296 -0.65693515241524
 1 -2.66232195499550  1.32166644204420  3.49124959335934
 1 -6.55341332013201  5.69614499489949  0.83108209990999
 1 -8.86804721192119  1.27404770767077 -3.18680415921592
 1 -3.45239630443044 -3.21000631603160  2.07376543734373
 1 -1.71900902480248 -1.12210987258726  2.79157043314331
 1 -3.00654043314331 -2.61694485568557  4.25159870387039
 1 -3.31975276797680 -0.80308021242124  4.61028305810581
 1 -4.57168968066807 -1.55621470237024  3.87644159465947
 1 -2.29605491919192 -3.13166268356836 -0.17070769456946
 1 -1.27742557495750 -1.49824894119412  0.40059818141814
 1 -0.31283671717172 -2.95625692129213  2.39032325102510
 1 -1.54750947254725 -4.26970410161016  1.76019781778178
 1 -1.71705181898190  3.49645917031703  3.90272618231823
 1 -2.66818780888089  4.97462466846685  4.52283854155416
 1 -3.10786378137814  3.13741473897390  4.97618262426243
 1 -5.66445950985099  6.43384757915792  2.51671699309931
 1 -10.21867100060006  3.14716537363736 -3.25217846954695
 1 -10.25549634753475  4.84707855195520 -3.14025431613161
 1 -9.50488028782878  4.47072548654866 -5.21512671497150
 1 -8.08131764116412  4.96963670907091 -4.40159011401140
 1 -8.15016486548655  3.12206156495650 -4.96820674547455
 1 -8.65344293389339 -1.16053659655966 -4.69428042634263
 1 -8.22541352435243 -2.65570897599760 -4.17042967996800
 1 -9.43191327082708 -1.79314613801380 -3.41115802250225
 1 -3.97068442584258 -3.71106593319332 -1.40069335623562
 1  2.27463859685969 -6.19825776877688  0.77756371327133
 1  2.16846759015902 -5.25685266136614 -0.57747119671967
 1  3.74153627592759 -4.17396667846785  1.96041104870487
 1  2.61145613231323 -3.64254987608761 -1.42485502650265
 1  3.70781539483948 -2.33682724202420 -1.65074754525453
 1  4.38224039803980 -3.87714144334433 -2.07070599649965
 1  4.87934797569757 -1.39335575957596  0.35284716821682
 1  5.31792031933193 -2.48117975037504  1.73508838913891
 1  6.65151267796780 -3.87899109120912  0.19467735173517
 1  6.51112127252725 -2.63646125512551 -1.28876947244724
 1  7.38986791809181 -0.88578190329033  0.16529377487749
 1  7.79627173007301 -2.11125770887089  1.43649803510351
 1  9.01664577387739 -1.88262653785379 -1.37204054215422
 1  8.94348886758676 -4.27256602800280 -0.15052884528453
 1  10.60618995979598 -3.59126332843284 -0.57631774527453
 1  9.80903996539654 -3.66503759525953  1.03044348704870
 1  9.71672082268227  0.10068579477948  0.61234659845985
 1  10.25372547004701 -1.30942747664767  1.45887542754275
 1  11.96940208150815 -1.98628866076608  0.02581820862086
 1  11.32186827352735 -0.76251915681568 -1.37184851845185
 1  11.64655568906891  1.16512094129413 -0.21134068926893
 1  12.31376619991999  0.31908309970997  1.36929520972097
 1  12.94631143184318  0.65803023532353 -1.67557979667967
 1  15.05613495179518 -0.71096930963096  0.56845252525253
 1  14.14768033903390 -1.70612962926293 -0.62542886438644
 1  15.48090907930793 -0.52963616181618 -1.10744763726373
 1  13.44955314951495  2.51705632473247 -0.45421720942094
 1  14.12415911621162  1.98529881908191  0.82257947184718
 1  16.24522617841784  1.40613922662266 -0.60082657335734
 1  15.44603018641864  2.09779369216922 -2.05844722442244
 1  15.24242564716472  4.26684206220622 -0.50353235133513
 1  16.56456922702271  3.44159080048005  0.50975087548755
 1  18.13422710411041  3.18784027522752 -0.95363444304430
 1  16.28927964836484  4.70026655555556 -2.93674603440344
 1  17.96228215171517  4.45702521582158 -3.32215682078208
 1  16.71487168736874  3.04893596359636 -3.29215725032503
 1  17.85383143034303  5.34935615311531  0.35006667086709
 1  18.79470699299930  5.56201035323532 -1.17186410081008
 1  17.03638518941894  6.27244674777478 -0.80900496179618
 1 -4.97717301870187 -7.59483891699170 -0.37516105380538
 1 -6.13572800310031 -6.70507759435944  0.78238174567457
 1 -4.63894206280628 -6.87909948554855  1.34868932553255
 8 -7.96360395199520  6.91405790659066 -0.51592937693769
 1 -8.96265456255625  6.33365901080108 -2.10044572737274

