%nproc=4
%Mem=4GB
# td=(NStates=1) iop(3/107=0140000000,3/108=0140000000) iop(3/107=0140000000,3/108=0140000000) CAM-B3LYP/6-31G(d,p) 

TD

0 1
12 -5.61670317691769  1.15381025532553  0.05430403560356
 6 -4.98813920112011 -2.10693915721572 -0.34279114591459
 6 -3.45926471557156  1.16500678547855  2.77894326762676
 6 -6.25166396209621  4.61092435663566  0.69913012181218
 6 -7.92490825792579  1.16419727042704 -2.46276394989499
 7 -4.28336258955896 -0.20113830563056  0.93912525132513
 6 -4.19500302780278 -1.49953365496550  0.59837218681868
 6 -3.12693581808181 -2.34694799759976  1.52039640334033
 6 -2.83655682668267 -1.26988987988799  2.57450400650065
 6 -3.49249667706771 -0.01209383708371  2.05159974517452
 6 -3.40380341974197 -1.83139658105811  3.99130182958296
 6 -1.92580777397740 -2.65280268956896  0.76247155265527
 6 -0.98991063456346 -3.51150873147315  1.45650923892389
 6  0.36817191769177 -3.89347318801880  0.68036623132313
 8  0.62311237553755 -3.43970128372837 -0.39197543174317
 8  1.10283712941294 -4.79508912621262  1.36693130043004
 7 -4.93381419771977  2.72589196609661  1.38761899359936
 6 -3.99553164296430  2.34301172287229  2.42332293559356
 6 -3.77111661536154  3.63166166836684  3.17682823902390
 6 -4.57694824752475  4.56740826912691  2.58999827112711
 6 -5.36995309950995  3.99521761696170  1.47471356365637
 6 -2.89690505360536  3.89456683248325  4.26868105750575
 6 -4.77746427702770  6.01323874437444  3.01204070887089
 8 -4.11420146814682  6.47707559555956  3.97457135703570
 7 -6.93357715761576  2.63129302510251 -0.70803245954595
 6 -7.05151786658666  4.00430004720472 -0.36388807750775
 6 -8.01370655705571  4.62006873167317 -1.30670477997800
 6 -8.45056450975097  3.64253118301830 -2.06603554795480
 6 -7.75024391489149  2.37467347614761 -1.82875882238224
 6 -8.30721371227123  5.98353826322632 -1.07128663746375
 6 -9.48590295359536  3.88776917511751 -3.18826345914591
 6 -8.83436489018902  4.17516566276628 -4.51924832883288
 7 -6.49792821182118 -0.09800481818182 -1.05047013901390
 6 -7.33700322992299 -0.13460952955296 -2.07866207690769
 6 -7.64916242344234 -1.31323302690269 -2.74030655325533
 6 -6.71809135793579 -2.19174874667467 -2.13344951065107
 6 -5.97012542794279 -1.32464602970297 -1.09966609700970
 6 -8.59157461526152 -1.67280740674067 -3.80331722792279
 6 -6.20676434353435 -3.52234781868187 -1.90231378647865
 8 -6.58699309480948 -4.58786648504851 -2.55678194329433
 6 -5.05009357145715 -3.57904595719572 -0.90711303110311
 6 -5.24178165556556 -4.64759020012001  0.16872054385439
 8 -5.77107287888789 -4.33865287338734  1.28156451985199
 8 -4.79298899709971 -5.81081227762776 -0.33289643424342
 6 -5.15276284048405 -6.99299115241524  0.40898272807281
 6  2.39934090729073 -5.12210333053305  0.78030198459846
 6  3.43137767276728 -4.10087024792479  0.98015591539154
 6  3.99752914311431 -3.22395526562656  0.12385602060206
 6  3.68516285518552 -3.18454339563956 -1.32723222772277
 6  5.07288371417142 -2.27181222882288  0.63890768956896
 6  6.49905477677768 -2.65171809700970  0.08211967936794
 6  7.57085240884088 -1.71661101660166  0.53640933143314
 6  8.86422724402440 -1.95173000660066 -0.16195397789779
 6  9.43851023272327 -3.38056869726973  0.06464300660066
 6  10.03169374847485 -0.97272751015102  0.44735725122512
 6  11.44708201060106 -1.00392999989999 -0.26556532273227
 6  12.19303699229923  0.23679830733073  0.22710955855586
 6  13.47930038583858  0.40876574647465 -0.78696345954595
 6  14.47584588358836 -0.83413281588159 -0.54542869376938
 6  14.26372231183118  1.72399857145715 -0.18374762956296
 6  15.57866205660566  2.11164919311931 -0.87176217121712
 6  16.01354393879388  3.44430918371837 -0.64697531073107
 6  17.35520076917692  3.87962580418042 -1.21868580378038
 6  17.20354294399440  3.85875076677668 -2.78564078827883
 6  17.79230863696370  5.29767503280328 -0.76946640554055
 1 -2.97566328912891  1.14143841924192  3.80336080448045
 1 -6.59213719251925  5.59794517491749  0.88015700740074
 1 -8.63816422362236  1.07811811471147 -3.42414789358936
 1 -3.76603766856686 -3.23516883228323  1.89214727552755
 1 -1.76415353925393 -1.08732639423942  2.47186846294629
 1 -2.53582336143614 -2.76175933713371  4.44292783678368
 1 -3.22135292799280 -1.07261716611661  4.57816984678468
 1 -4.35371788348835 -2.31054013491349  3.82247619811981
 1 -2.19074438813881 -3.13076259355936 -0.09231985578558
 1 -1.48603643604360 -1.65585470177018  0.10127824942494
 1 -0.49977541104110 -2.67536883248325  2.34504872357236
 1 -1.46358107970797 -4.24437156835684  1.90076187418742
 1 -1.76809692349235  3.39847937233723  4.07250316001600
 1 -2.82649363946395  5.05929313531353  4.44056031373137
 1 -3.15699869486949  3.34494549204921  5.19821482748275
 1 -5.61609467336734  6.59912410681068  2.57357267866787
 1 -9.95639477297730  2.95502615971597 -3.36713996569657
 1 -10.07181797969797  4.75270911501150 -2.76838712941294
 1 -9.42843264306431  4.46383479747975 -5.27386258855886
 1 -8.25760526992699  5.13991373677368 -4.32034198919892
 1 -8.09681953095309  3.41575093389339 -4.73576350115011
 1 -8.55853344294430 -1.09773031593159 -4.65666666496650
 1 -8.28441942494250 -2.74218762386239 -4.07512014901490
 1 -9.49486956645665 -1.41694851825183 -3.47566447314731
 1 -4.14643200060006 -3.98405323192319 -1.57413069997000
 1  2.58191932493249 -5.96605454845484  1.16682263916392
 1  2.14603534693469 -5.40992796889689 -0.40048349794979
 1  3.70719284158416 -4.06622590439044  1.96162116971697
 1  2.76692167886789 -3.80640626172617 -1.74092663366337
 1  3.55086970027003 -2.08788234753475 -1.75635810631063
 1  4.54969714371437 -3.69270299949995 -1.88372729862986
 1  4.67540758165817 -1.28208463246325  0.42342422592259
 1  5.05250377767777 -2.46072770517052  1.72579746004600
 1  6.84525205190519 -3.58140133223322  0.34163204720472
 1  6.42060222062206 -2.68232584158416 -1.10078067356736
 1  7.32619155045505 -0.62148547364736  0.41919916541654
 1  7.77138924182418 -1.91749833293329  1.63318770407041
 1  8.71497560686069 -1.76026430163016 -1.17739107720772
 1  8.85385990469047 -4.19768854025402 -0.08250204260426
 1  10.45141448224823 -3.43480768286829 -0.41761187468747
 1  9.64640370177018 -3.69465055655566  1.25749619231923
 1  9.77405655625563 -0.00875514931493  0.40353571737174
 1  10.41511160866087 -1.25196173007301  1.60061960196020
 1  11.79360450175018 -1.92183221512151 -0.15643001620162
 1  11.32067815451545 -0.94778768366837 -1.29020035363536
 1  11.63585461896190  1.21569599879988  0.29855029982998
 1  12.71603642694269  0.21266245764576  1.18078635883588
 1  13.01004780548055  0.56162059435944 -1.78775101380138
 1  14.75718505680568 -0.59598781148115  0.64971065106511
 1  13.88247381838184 -1.60564958125813 -0.83917023852385
 1  15.33342433083308 -0.94347754595459 -1.27333422592259
 1  13.63478167236724  2.57626224532453 -0.56196798449845
 1  14.17349404970497  1.71770205940594  1.00412762666267
 1  16.41135279107911  1.38807742044204 -0.55365185588559
 1  15.55658124152415  1.78899281208121 -2.02504388408841
 1  15.33705511011101  4.31524690269027 -0.87695969406941
 1  16.26071884198420  3.48635527692769  0.61863176357636
 1  18.14108779017902  3.07895938713871 -1.01490056965697
 1  16.56095681608161  4.67853438233823 -3.15602796259626
 1  18.09922584608461  4.12027154045404 -3.36999160426043
 1  16.91196139633963  2.75907697769777 -3.03310134473447
 1  17.94554060126012  5.49513073057306  0.33856552075208
 1  18.69504702700270  5.72800695289529 -1.25565247964796
 1  17.07099865076508  6.09239874297430 -0.85019908120812
 1 -4.44468977037704 -7.79919935303530 -0.06369990769077
 1 -6.03638806910691 -7.17249433603360  0.59468297579758
 1 -4.79530769936994 -6.88166974257426  1.38749320592059
 8 -7.76841443304330  6.83693019381938 -0.39904768876888
 1 -9.13234153125313  6.27964360926093 -1.69959564236424

