%nproc=4
%Mem=2GB
# td=(NStates=1) iop(3/107=0140000000,3/108=0140000000) iop(3/107=0140000000,3/108=0140000000) CAM-B3LYP/6-31G(d,p) 

TD

0 1
12 -6.68495106720672  0.53907305140514  0.02670028952895
 6 -4.35193229972997 -1.97326574837484  0.21819209620962
 6 -4.12870468586859  2.75323695679568  1.08190107170717
 6 -9.06822952765277  3.23012703680368 -0.12569207090709
 6 -9.22771086868687 -1.66654968456846 -0.69527958665867
 7 -4.67873294519452  0.50840023772377  0.59813884598460
 6 -4.01067833343334 -0.83581328812881  0.69325988138814
 6 -2.34399781838184 -0.51511327052705  0.98399046134613
 6 -2.33404337013701  1.01140128892889  1.42085424792479
 6 -3.90256651955195  1.37847793299330  0.99548432313231
 6 -1.97949423512351  1.28085988188819  2.90916547934793
 6 -1.47957670607061 -0.86799936333633 -0.39943861756176
 6 -0.26566468476848 -1.45763747034703  0.46103517701770
 6  0.78188926812681 -1.75481271817182 -0.63722189598960
 8  0.63801386948695 -1.44963757625763 -1.90410140034003
 8  1.73553383998400 -2.37701800040004 -0.30880580308031
 7 -6.59126086828683  2.67022739273927  0.31175492339234
 6 -5.50209076997700  3.28704734793479  0.82281857805781
 6 -5.82525674087409  4.78879856465646  0.88763363196320
 6 -7.15464617801780  4.89361545204520  0.47295387868787
 6 -7.78768047194720  3.40574938333833  0.13913874527453
 6 -4.85183010331033  5.79244667516752  1.18688635663566
 6 -7.82559412071207  5.98426534663466  0.11222074577458
 8 -7.45231914811481  7.13423504010401  0.28360621742174
 7 -8.82661621512151  0.71805266446645 -0.36095874497450
 6 -9.50880455285529  1.90716545184518 -0.37945899819982
 6 -10.92361899219922  1.66539641074107 -0.67358313951395
 6 -10.93786814431443  0.24948585298530 -0.92210306580658
 6 -9.65750741404140 -0.34144230743074 -0.63365544224422
 6 -11.93050982628263  2.77691388448845 -0.96944159495950
 6 -12.00114323482348 -0.42230579287929 -1.38950708440844
 6 -12.12459932203220 -0.64987715291529 -2.89104189888989
 7 -6.82192867576758 -1.36090865216522 -0.14588723322332
 6 -7.90476313791379 -2.12364236093609 -0.43183638163816
 6 -7.41669925502550 -3.58910623302330 -0.47112812291229
 6 -6.24849047024702 -3.53265242614261 -0.28430669126913
 6 -5.86397268596860 -2.10721953645365 -0.05795961166117
 6 -8.52877140064006 -4.63372074987499 -0.60327314321432
 6 -5.07397360186019 -4.45454125222522  0.00556858255826
 8 -4.97286903560356 -5.56726726502650 -0.03928342174217
 6 -3.95821954735474 -3.43996455565557  0.28596324352435
 6 -3.29763327422742 -3.64511068656866  1.75458517151715
 8 -3.93416865696570 -4.01022775757576  2.78994766456646
 8 -1.81888356325633 -3.91303760906091  1.65195513471347
 6 -1.14437295939594 -4.31995708580858  2.69188361356136
 6  3.02659455225523 -2.53680885778578 -1.12860410451045
 6  4.00224399179918 -1.38177517861786 -0.75534106640664
 6  5.08663941934193 -1.18718558995900 -1.53398960056006
 6  5.43840782458246 -2.00489362406241 -2.88426540874087
 6  6.02503632823282 -0.02522017491749 -1.29430598909891
 6  7.26685537953795 -0.80002578467847 -0.53619035633563
 6  8.32691525182518  0.28935457005701 -0.43836231673167
 6  9.77188027742774 -0.18880580088009  0.17640933523352
 6  9.52887040334033 -0.51358017271727  1.82576694549455
 6  10.85120745074508  0.98380323452345  0.11299613801380
 6  12.19329459996000  0.26861816901690  0.36874518571857
 6  13.29831137373737  1.37415469016902  0.48043094149415
 6  14.66619295449545  0.65179845794580  0.52985764786479
 6  14.89352434053405  0.16669438893889  2.10284020802080
 6  15.81461108950895  1.61422632463246 -0.00285708040804
 6  17.21769124722472  0.88173339773977 -0.10255712961296
 6  18.36767631503151  1.76335352655266 -0.68089823662366
 6  19.65997819891989  0.93536203100310 -0.77385746944694
 6  19.86848664996500 -0.11429599929993 -1.76584237543754
 6  20.80912808170817  2.03622504050405 -0.82019711561156
 1 -3.07905854415442  3.61893314431443  1.07994739643964
 1 -9.90951493399340  4.00556964206421 -0.53224685858586
 1 -9.84055654725472 -2.13333373267327 -1.46581940784078
 1 -1.81712422922292 -0.97651526932693  1.59820986928693
 1 -1.60518985758576  1.64230470667067  0.72521897529753
 1 -0.92864424812481  0.92164047844785  3.27961867296730
 1 -1.94430260416042  2.14232280868087  3.08683480128013
 1 -2.75800813331333  0.80483836913691  3.48517438653866
 1 -2.05936495679568 -1.50981225422542 -0.92877066386639
 1 -0.89161433043304  0.22238076517652 -0.97129692049205
 1  0.32370036833683 -0.52206363966397  1.20603646884688
 1 -0.47836155595560 -2.64912124592459  0.73234346644665
 1 -4.02564709510951  5.28089591749175  0.68480343804380
 1 -5.01945222582258  6.83488616451645  0.98220512661266
 1 -4.92122315051505  5.91781074207421  2.40524829712971
 1 -8.89896291039104  5.72626773597360 -0.37646402220222
 1 -11.92776232983298 -1.70269113661366 -1.01094552175218
 1 -12.93327954295430 -0.08259185938594 -1.01713935033503
 1 -12.79053687678768 -1.35742785818582 -3.21779889698970
 1 -11.78929589338934  0.26900432193219 -3.38525069456946
 1 -11.25610243464346 -1.34337765476548 -3.23781038843884
 1 -9.41902108540854 -4.34186074167417 -1.41558378637864
 1 -7.71497671227123 -5.59264927752775 -1.03197284918492
 1 -9.03149042904291 -5.07803976517652  0.70577518701870
 1 -3.23623320472047 -3.82695642054205 -0.24952325912591
 1  3.06066768216822 -3.36491376517652 -1.05459117621762
 1  2.85160944974497 -2.41396731173117 -2.31901213651365
 1  3.86829415711571 -0.53185593399340  0.06444004560456
 1  4.72841589858986 -2.15860933343334 -3.97289740474047
 1  6.16369994839484 -1.52285096049605 -3.04039526342634
 1  5.62499632703270 -2.98053066736674 -2.83738792259226
 1  6.13746416831683  0.44042938033803 -2.34852746994699
 1  5.68714382378238  1.06978252605260 -0.56212047544754
 1  7.01947312621262 -1.07246544364436  0.58741046264627
 1  7.69192459085909 -1.98094688498850 -1.15923539943994
 1  8.86087821922192  0.74659525432543 -1.45649843514351
 1  8.12660115821582  1.11086627482748  0.35438114651465
 1  10.01278372547255 -1.13001044474447 -0.34970212781278
 1  8.62863510781078 -1.25062387808781  1.90842920372037
 1  10.57129319871987 -1.01752563376338  2.14751664306431
 1  9.10341355295530  0.44011278887889  2.59021032613261
 1  10.83418705650565  1.26518927882788 -1.08860603220322
 1  10.82926267286729  1.88121699729973  0.50609448974897
 1  12.22550009220922 -0.41655409490949  1.12483616691669
 1  12.37263941794179 -0.41652987358736 -0.59404240174017
 1  13.27152202220222  1.98538808380838 -0.66093499809981
 1  12.85813785858586  1.95808005930593  1.36155194459446
 1  14.72377380318032 -0.54567208320832 -0.05702389358936
 1  14.77950785068507  1.20079047454746  2.78685145814581
 1  13.94290156365637 -0.53517118901890  2.44066156425643
 1  15.76295332843284 -0.40418400150015  2.45441191889189
 1  15.46019715461546  2.28071806520652 -0.94958493319332
 1  15.75913994659466  2.55335487098710  0.45091341454145
 1  16.96556787188719  0.53179635023502  0.85034522122212
 1  17.13854137833783 -0.06644847564756 -0.65130650805081
 1  18.00294530163017  1.99782633043304 -1.88920190849085
 1  18.27001699779978  2.85177908480848  0.09685635613561
 1  19.82356491769177  0.44237708390839  0.20166351715172
 1  19.15462378037804  0.41946699629963 -2.76866899209921
 1  21.11757604760476 -0.56577837963796 -2.05736987038704
 1  19.29467219421942 -1.34657237563756 -1.35285336003600
 1  20.53555033363336  2.73468304740474  0.05839659325933
 1  21.77293503380338  1.21345792849285 -0.59295201020102
 1  21.03945059795980  2.67300478767877 -1.76755155145515
 1 -0.36549217431743 -5.05431818121812  2.43623197119712
 1 -1.95443512451245 -5.01407868156816  3.63281391799180
 1 -0.81735574887489 -2.92231070817082  3.23502765596560
 8 -11.72807118141814  3.84051885108511 -0.93676549024902
 1 -12.92555306680668  2.33022426252625 -1.59938054305431

