%nproc=4
%Mem=2GB
# td=(NStates=1) iop(3/107=0140000000,3/108=0140000000) iop(3/107=0140000000,3/108=0140000000) CAM-B3LYP/6-31G(d,p) 

TD

0 1
12 -6.85879845194519  0.55867501160116  0.13175079457946
 6 -4.50886799329933 -1.88355677747775  0.42622289928993
 6 -4.32763457885788  2.81674330743074  0.95462834443444
 6 -9.36321902660266  3.15520954505451  0.08228872717272
 6 -9.23696179377938 -1.73873690329033 -0.63520357905791
 7 -4.72597766966697  0.37080647834783  0.64864389648965
 6 -3.98390565616562 -0.83851355815582  0.64051460686069
 6 -2.54527794639464 -0.50816257545755  0.80191225352535
 6 -2.54824479027903  1.09271942074207  1.05585774827483
 6 -4.01721798469847  1.49716980218022  0.86312108680868
 6 -2.31487777347735  1.22226402230223  2.49335389818982
 6 -1.58152690109011 -0.82882544594459 -0.25526420012001
 6 -0.14207232553255 -0.86855856245625  0.18517759125913
 6  0.81795287448745 -1.13815105200520 -0.88962713651365
 8  0.90971103920392 -0.85203781628163 -2.07116810701070
 8  1.91264155075508 -2.04417471607161 -0.55011993449345
 7 -6.77337908010801  2.53451382138214  0.38656240414041
 6 -5.68483904480448  3.29883852705271  0.59491578777878
 6 -6.05933014821482  4.72909259405941  0.62211708030803
 6 -7.33757447084709  4.91161725222522  0.29044562786279
 6 -7.92387409130913  3.43796260466047  0.21240607200720
 6 -4.92534745504550  5.74140157065707  0.70223789178918
 6 -8.13295485678568  6.00962788288829  0.22551207490749
 8 -7.75658957515752  7.13977559415942  0.45674353115312
 7 -8.96297985148515  0.70835169436944 -0.40568321742174
 6 -9.74046771917192  1.88366310161016 -0.18889994229423
 6 -11.09308593889389  1.44379425052505 -0.50889667086709
 6 -11.09339369686969  0.15344624902490 -0.80470132563256
 6 -9.87100876417642 -0.35138330153015 -0.60795287198720
 6 -12.23477025232523  2.43542973607361 -0.62676732753275
 6 -12.32356547704770 -0.64306786908691 -1.00132826652665
 6 -12.62970983308331 -1.08006017121712 -2.46718951365137
 7 -6.96127261016102 -1.42097465876588 -0.12172481698170
 6 -7.99595225682568 -2.21896189288929 -0.31348454645465
 6 -7.60343792889289 -3.57447476987699 -0.33189419951995
 6 -6.08214383558356 -3.49824898579858 -0.24869312991299
 6 -5.83805009370937 -2.18648746324632  0.07465364966497
 6 -8.49345786928693 -4.81861923972397 -0.54278709460946
 6 -5.03323952845285 -4.41746754485449 -0.06516849114912
 8 -4.76104785348535 -5.57981852015202 -0.23295278867887
 6 -3.76504022942294 -3.35521608080808  0.25326997419742
 6 -3.26609011991199 -3.63685986148615  1.68304801780178
 8 -3.77258249834983 -4.00654738953895  2.73028169796980
 8 -1.77760943584358 -3.49205551085109  1.67473741294129
 6 -0.92705122722272 -3.82018710881088  2.86640106530653
 6  3.10040193299330 -2.09943512041204 -1.41161240534053
 6  4.12424619201920 -1.21623862496250 -1.03955948824882
 6  5.03355411081108 -0.95701257265727 -1.89566576817682
 6  5.28365234903490 -1.80639377407741 -3.09843682588259
 6  6.17504132873287  0.02339468656866 -1.48058461696170
 6  7.36771546554655 -0.59470525262526 -0.85038177547755
 6  8.59254181448145  0.32348798339834 -0.43416189668967
 6  9.90099318871887 -0.52767968826883  0.20893258755876
 6  9.80960847714771 -0.70013882858286  1.71009537833783
 6  11.02014434443444  0.58759361356136 -0.08206336793679
 6  12.44202947344735 -0.02497118991899  0.41510982218222
 6  13.63693523612361  1.01057833253325  0.36272917131713
 6  14.93728006320632  0.39632291039104  0.52395705780578
 6  15.13020800890089  0.05481320082008  1.94698462246225
 6  16.07740736913691  1.41562646464646  0.01523472877288
 6  17.33992347044704  0.65578080248025 -0.18240511441144
 6  18.62021156855686  1.61935912711271 -0.18360850765077
 6  20.08207040814082  0.78186668146815 -0.21845192889289
 6  20.11765156645665  0.07272270257026 -1.64107989918992
 6  21.29426659555956  1.75834725272527 -0.09581467736774
 1 -3.33444408270827  3.65647689868987  0.97106650835083
 1 -10.08886286878688  3.98059714481448  0.10008637473747
 1 -9.97942043364336 -2.22694309360936 -0.87160998689869
 1 -2.00852336913691 -1.06468408620862  1.97669771807181
 1 -1.61348068666867  1.88593907010701  0.42255870927093
 1 -1.06626801050105  0.98369668406841  2.61118182928293
 1 -2.43637181108111  2.06422499889989  3.03563968176818
 1 -3.05502783528353  0.74679256455646  2.84123999309931
 1 -1.79627864816482 -1.82971424442444 -0.72408019481948
 1 -1.55735090409041 -0.03454492739274 -1.16413620442044
 1  0.20379837813781  0.03459202590259  0.83916978217822
 1  0.03192947314731 -1.77069340314031  0.72733296539654
 1 -4.65126965736574  5.70201802970297 -0.42113715601560
 1 -5.41510179077908  6.53067574347435  1.00010691679168
 1 -3.95432646084609  5.71759072007201  1.76241401370137
 1 -8.90812382648265  5.80114522372237 -0.30799717551755
 1 -12.42182173577358 -1.76831769926993 -0.26945137233723
 1 -13.21369758475848  0.02615901570157 -0.89664730113011
 1 -13.51416924002400 -1.80176229162916 -2.61824894199420
 1 -12.68616558035804 -0.05123770227023 -3.37266943644364
 1 -11.73575039943994 -1.53826714371437 -3.09728633603360
 1 -9.25667485078508 -4.67605416101610 -1.32561478947895
 1 -7.84488970357036 -5.55597561016102 -0.96896654855486
 1 -8.70076735673567 -5.47021898309831  0.50789539903990
 1 -3.30322990439044 -3.34841856675668 -0.48293660046005
 1  3.36364798019802 -3.09375664946495 -1.16247196429643
 1  2.70774506330633 -2.03010892589259 -2.61128136343634
 1  4.07559488718872 -0.24417716611661 -0.12103850225023
 1  4.76049910691069 -2.05190866336634 -3.81879199419942
 1  6.04715829422942 -1.53659233463346 -3.69402062596260
 1  5.16205003240324 -2.65892850715072 -2.96878106190619
 1  6.74252467436744  0.62267760516052 -2.48848146534653
 1  5.77782289168917  0.89285483328333 -0.94309857325733
 1  6.82698387728773 -0.84240243734373  0.10253197479748
 1  7.75917131553155 -1.54902369266927 -1.25994547044704
 1  8.91654378577858  0.79924051885189 -1.21392417771777
 1  8.55279377747775  0.98936412461246  0.05369107750775
 1  9.68324077117712 -1.21693913761376 -0.46697385498550
 1  9.13093533783378 -1.48994781048105  1.91540990179018
 1  10.52309837923792 -1.32999688088809  2.20983287468747
 1  9.67348055965597  0.36175495309531  2.33717502260226
 1  11.17596123392339  0.81652441234123 -1.11530870247025
 1  11.20057980458046  1.74608348394840  0.40602448274827
 1  12.15866340854085 -0.50974341384138  1.40394407770777
 1  12.57516967096710 -0.93724194479448 -0.05526852435243
 1  13.89756462646265  1.69377892289229 -0.64362326692669
 1  13.80210225502550  1.52988724002400  1.09321511091109
 1  14.68707013281328 -0.73232074807481 -0.29920811201120
 1  15.60885078497850  0.86220661616162  2.53037581058106
 1  14.46188346184618 -0.67056472837284  2.51881938003800
 1  16.00960799389939 -0.75164874797480  2.04651112881288
 1  16.00872200710071  1.67272726612661 -0.94850482518252
 1  16.30322435503550  2.25768530403040  0.43923224642464
 1  17.38308962406240 -0.17730455985599  0.81830201690169
 1  17.51302882708271  0.18356652585259 -1.08793017041704
 1  18.31987699479948  2.50429697749775 -1.10155314361436
 1  18.44106410251025  2.19965387228723  0.83050972147215
 1  20.05669823102311 -0.33212036583658  0.62289564036404
 1  19.50288860686069  0.56064111371137 -2.29550167536754
 1  20.96337062706271 -0.61260306210621 -1.70330446384638
 1  19.28711143814381 -0.54367208560856 -1.74654272897290
 1  21.00876765536553  1.91933151225123  0.78496925052505
 1  22.48254599489949  1.40452703540354  0.04803208820882
 1  21.23724037693769  2.36927441464146 -0.99772456875688
 1 -0.47775340044004 -3.87466021542154  2.48230657865786
 1 -1.11170085108511 -4.59146642034203  3.69381001760176
 1 -0.54125813911391 -2.86617509460946  3.39462361556156
 8 -12.08676705100510  3.67170196939694 -0.64642645634563
 1 -13.17116762826283  1.82933417351735 -1.03616422142214

