%nproc=4
%Mem=4GB
# td=(NStates=1) iop(3/107=0140000000,3/108=0140000000) iop(3/107=0140000000,3/108=0140000000) CAM-B3LYP/6-31G(d,p) 

TD

0 1
12 -5.55226673327333  1.24047892219222  0.17957656285629
 6 -5.03239362656266 -2.07694615791579 -0.46861372817282
 6 -3.41481027012701  1.05294557935794  2.77421279457946
 6 -6.13753254895490  4.54620788498850  0.60180038883888
 6 -7.89451521862186  1.25147599829983 -2.38292596609661
 7 -4.36433068636864 -0.29668786058606  1.05700703950395
 6 -4.19936346384638 -1.64259796139614  0.59745209480948
 6 -3.22613573807381 -2.51084438723872  1.50628499219922
 6 -2.91683485448545 -1.45674856575658  2.65416197229723
 6 -3.54714214161416 -0.18580120782078  2.06845143034303
 6 -3.33045608500850 -1.80844428582858  4.05172787218722
 6 -1.92979817301730 -2.69550695999600  0.66231153665367
 6 -0.96103774727473 -3.55957353795380  1.38674226222622
 6  0.33733883438344 -3.79392323302330  0.65356355105511
 8  0.45332539683968 -3.37234454805481 -0.51539777397740
 8  1.12864971067107 -4.62786240354035  1.34566917421742
 7 -4.88726954325433  2.62682205910591  1.40587081878188
 6 -3.99563165296530  2.26589401110111  2.43931453475348
 6 -3.72857236093609  3.48132663486349  3.14135469166917
 6 -4.41788234093409  4.58122965126513  2.52062133343334
 6 -5.22967907210721  3.93624171937194  1.48215430773077
 6 -2.77197256035604  3.66587396319632  4.34856904630463
 6 -4.52123865446545  5.95667308780878  2.94521402620262
 8 -3.90647069506951  6.48265615361536  3.83818771867187
 7 -6.85281908180818  2.68922881868187 -0.69925158145815
 6 -6.80968368316832  3.94343396059606 -0.42786447514751
 6 -7.85929111551155  4.60921764656466 -1.25400951045104
 6 -8.35132458575858  3.64445137503750 -2.09390833523352
 6 -7.65262415291529  2.42730873967397 -1.74423036953695
 6 -8.30627361826183  6.03200310971097 -1.16806631543154
 6 -9.34948931223122  3.93176357455746 -3.22568720152015
 6 -8.58531998569857  4.09211735793579 -4.54232063606361
 7 -6.35193361236124 -0.16726174387439 -1.14796988898890
 6 -7.36099562916292 -0.00194626322632 -2.13414762546255
 6 -7.65882338953895 -1.37601930553055 -2.68933145574557
 6 -6.82718226702670 -2.22345191699170 -2.05033119881988
 6 -6.02577099249925 -1.50695426052605 -1.10391652205220
 6 -8.55264072187219 -1.55192531853185 -3.81912880908091
 6 -6.25547921502150 -3.58360394429443 -2.01295485058506
 8 -6.65519991549155 -4.54761245964596 -2.53369963506351
 6 -5.01845040714071 -3.62285033763376 -0.88778109790979
 6 -5.34162163956396 -4.59999544064407  0.10358403020302
 8 -5.78309408100810 -4.51223023112311  1.17880424382438
 8 -5.13712341054105 -5.86108730513051 -0.40583372797280
 6 -5.39783734793479 -6.86811866516652  0.50252208200820
 6  2.32982395559556 -4.95067618781878  0.64013796819682
 6  3.38710324532453 -3.99846000690069  1.08126602640264
 6  3.99349874007401 -3.04982785288529  0.28572220722072
 6  3.71112545144514 -3.09348428972897 -1.16871637613761
 6  5.12248867466747 -2.19566461406141  0.81563536233623
 6  6.44745961726173 -2.67111003620362  0.23318478587859
 6  7.64184950855086 -1.88958831433143  0.81606729722972
 6  8.92666348764877 -1.98624345794579  0.09803202070207
 6  9.44589097079708 -3.45523616401640  0.24875141744174
 6  10.02898347744775 -0.94035427282728  0.48847136263626
 6  11.24755205760576 -0.98942854975498 -0.29102786898690
 6  12.25064275287529  0.14249887738774  0.06782362996300
 6  13.47436989278928  0.44402927282728 -0.75849061226123
 6  14.48866716571657 -0.66322572517252 -0.63117726862686
 6  14.13832977257726  1.76057222882288 -0.37637689248925
 6  15.33117730813081  2.03979200740074 -1.06449144414441
 6  15.89345192959296  3.49084383718372 -0.68517913111311
 6  17.21357660676068  3.97903574517452 -1.32433636883688
 6  17.02191478117812  4.20949584128413 -2.79446167036704
 6  17.65199460556055  5.35634089938994 -0.61680113901390
 1 -2.77400312311231  1.06232050745075  3.67228769716972
 1 -5.95449342814281  5.61565694609461  0.66228522022202
 1 -8.53198360556055  1.35241554445444 -3.19853533233323
 1 -3.57495856065607 -3.37208252365237  1.83432149294930
 1 -1.70258738263826 -1.11080874247425  2.55084636073607
 1 -2.79562934203420 -2.82031519271927  4.64591813581358
 1 -3.38414920762076 -1.11924182858286  4.85480751055105
 1 -4.30012252395240 -2.37355643654365  3.99259320982098
 1 -2.25316062976298 -3.08581809910991 -0.31433205700570
 1 -1.40247808020802 -1.59801891819182  0.56633475507551
 1 -0.88299373287329 -3.05965726132613  2.34713893259326
 1 -1.44306902850285 -4.52372950415042  1.69362116011601
 1 -1.57025713951395  3.63628315271527  4.07639354905491
 1 -3.04126511661166  4.64810201620162  4.75629188688869
 1 -3.00493348834883  3.10527152465247  5.22254726072607
 1 -5.20434349824982  6.60823501790179  2.30395571697170
 1 -10.02909204270427  3.16189684678468 -3.36284953665366
 1 -9.84629542744275  4.76597044114411 -2.84007429812981
 1 -9.32948274807481  4.46674508850885 -5.39138434073407
 1 -7.94257376677668  4.82965271067107 -4.47540749574957
 1 -8.07149699869987  3.30054941374137 -4.72544246904690
 1 -8.41545913551355 -0.53852439533953 -4.52371336963696
 1 -8.21680266326633 -2.48647205230523 -4.37552018901890
 1 -9.71468154765477 -1.80903772717272 -3.51385829252925
 1 -4.11595895329533 -4.05523034963496 -1.51058434533453
 1  2.53570470347035 -5.79504744774477  1.00088604550455
 1  2.21369211261126 -5.12071904800480 -0.42791624122412
 1  3.64848697099710 -4.15796507830783  2.17474248184818
 1  2.80470545724572 -3.43931955305531 -1.41417395839584
 1  3.59030364366437 -1.95420898019802 -1.60184265476548
 1  4.38609078307831 -3.54866859605961 -1.68439736563656
 1  5.13346338723872 -1.07626405040504  0.49448133163316
 1  5.00297882518252 -2.16378801120112  1.92691757205721
 1  6.54851237793779 -3.74317750985098  0.32546043004300
 1  6.77418757915791 -2.48889649864986 -0.83318391389139
 1  7.52292122342234 -0.68341166626663  0.75678292379238
 1  7.63423552645265 -2.19308589168917  1.90371475677568
 1  8.84389849914992 -1.70205848104810 -1.00585392349235
 1  8.73102762146214 -4.28016678807881 -0.27291108350835
 1  10.56349569036904 -3.65954015611561 -0.08367848134813
 1  9.44923398479848 -3.81728281978198  1.30891133383338
 1  9.60456960756076  0.17471319751975  0.44900026382638
 1  10.19453955145515 -1.00315684958496  1.48614815481548
 1  11.80758589988999 -1.89320935283528 -0.36896126932693
 1  11.18640472717272 -0.69662256715672 -1.38584991859186
 1  11.68615964946495  0.96475090429043  0.12403284808481
 1  12.70947577087709  0.09464065546555  1.01322960316032
 1  13.33927072777278  0.42955738803880 -1.84089632833283
 1  14.62444178247825 -0.96373458615862  0.45646132613261
 1  13.96716228722872 -1.59675869216922 -1.21324764626463
 1  15.39745073347335 -0.69272247044704 -1.29931682418242
 1  13.37760595479548  2.49352397149715 -0.43043483118312
 1  14.29715641594160  1.89101939113911  0.67753496739674
 1  16.13549520532053  1.33879249194919 -0.77655414611461
 1  15.23634921832183  1.70731464426443 -2.16733811351135
 1  15.10573197779778  4.33121849984999 -0.89667166526653
 1  16.05230800090009  3.60791743314331  0.32631253165317
 1  18.07222090349035  3.14590608180818 -1.39294837443744
 1  16.14134485488549  4.77394392329233 -3.12552491229123
 1  18.03707963146315  4.82154166746675 -3.13375798089809
 1  16.93199339953996  3.10950202020202 -3.23953198779878
 1  17.81040708790879  5.26295751325133  0.49038070227023
 1  18.63226074837484  5.71823597579758 -1.14012092649265
 1  16.96581813271327  6.15768527162716 -0.71767582888289
 1 -5.11100640204020 -7.79000843394339  0.06276273857386
 1 -6.48445287558756 -6.73271035763576  0.81517502500250
 1 -4.63114128272827 -6.80068164376438  1.41731618821882
 8 -7.69781737333733  6.87057355815582 -0.47480526452645
 1 -9.42246054315432  6.18294393929393 -1.69914559735974

