%nproc=4
%Mem=4GB
# td=(NStates=1) iop(3/107=0140000000,3/108=0140000000) iop(3/107=0140000000,3/108=0140000000) CAM-B3LYP/6-31G(d,p) 

TD

0 1
12 -5.68497000360036  1.22917779207921  0.17387599279928
 6 -4.92793318051805 -2.06612507580758 -0.39573644044404
 6 -3.28915770487049  1.21025130993099  2.70948632193219
 6 -6.24723351905191  4.57032029622962  0.68075828462846
 6 -8.09078484558456  1.15614646534653 -2.35381305480548
 7 -4.37843209650965 -0.30359855165517  1.10290162896290
 6 -4.20902442994299 -1.65547924952495  0.60642299189919
 6 -3.18262138663866 -2.28985228802880  1.52070643434343
 6 -2.89815298629863 -1.31989488038804  2.54974153025303
 6 -3.55562298969897 -0.00421304900490  2.15079966516652
 6 -3.20740377977798 -1.77119056045605  4.01508420782078
 6 -1.90326551975197 -2.69642705200520  0.65482078757876
 6 -1.03188483198320 -3.56785436603660  1.48224181218122
 6  0.22417751825183 -3.90547438813881  0.75398359305931
 8  0.45064512881288 -3.56004331793179 -0.40530676487649
 8  1.04795164086409 -4.75376499379938  1.43609821712171
 7 -5.04539535583558  2.61210058695870  1.50342057375738
 6 -4.11149323912391  2.40196761846185  2.45893649694969
 6 -3.89598910261026  3.61847034923492  3.18232878907891
 6 -4.57650820352035  4.57182871117112  2.51312058335834
 6 -5.36701280548055  3.92483057825783  1.50048614091409
 6 -2.91887725082508  3.70457783358336  4.26011020042004
 6 -4.80586711731173  5.99588700920092  2.98635814061406
 8 -4.30288033603360  6.52946083408341  3.92028592849285
 7 -6.91900570047005  2.63838373417342 -0.66854851115112
 6 -7.05091780658066  3.94518413561356 -0.34207589628963
 6 -8.00293547994800  4.57422414721472 -1.24803891339134
 6 -8.45187464076408  3.66036296619662 -2.17065601000100
 6 -7.84883377387739  2.32650865966597 -1.70134608110811
 6 -8.24943793469347  5.99215912531253 -1.26040554935494
 6 -9.48411277457746  3.90215061326133 -3.23161779457946
 6 -8.91574302800280  4.11053920012001 -4.64471087508751
 7 -6.41453987298730 -0.07925294299430 -1.07919301130113
 6 -7.48326785638564 -0.04727079567957 -2.16043025372537
 6 -7.55379288648865 -1.36090779437944 -2.77339986258626
 6 -6.72584213301330 -2.14863443524352 -2.02185835153515
 6 -6.00408882428243 -1.37522108720872 -1.11569770017002
 6 -8.50309576737674 -1.53115324132413 -3.92671956815682
 6 -6.23332699979998 -3.53894947884789 -2.11510506560656
 8 -6.56676107160716 -4.47782548094809 -2.63434970007001
 6 -5.04626318841884 -3.39092714531453 -0.96913923372337
 6 -5.25772324972497 -4.55306074717472  0.11715538733873
 8 -5.60359613121312 -4.37030603870387  1.28943530693069
 8 -5.00169986818682 -5.81513270967097 -0.27125026962696
 6 -5.19283684788479 -6.97987984128413  0.59647147694769
 6  2.32605357855786 -5.02448356855686  0.74171812621262
 6  3.38138267326733 -3.96968712961296  1.08572647244724
 6  4.04343373357336 -3.14644751485149  0.22984661966197
 6  3.78088242714271 -3.20701564286429 -1.31190069456946
 6  5.19745617141714 -2.27020206780678  0.64666846564656
 6  6.57121199249925 -2.71470439563956 -0.02301083368337
 6  7.72891821542154 -1.88686804230423  0.49956564706471
 6  9.05218603990399 -2.02085691929193 -0.08000578307831
 6  9.71441782348235 -3.43361400180018  0.06241278357836
 6  10.10309088818882 -1.12310254765477  0.39936245174517
 6  11.44213151555156 -0.89897950485048 -0.35583434963496
 6  12.23619130773077  0.29237386488649  0.10454730233023
 6  13.52031448724872  0.39779464936494 -0.69901466466647
 6  14.43386168516852 -0.77996739933993 -0.44908905980598
 6  14.32500844044404  1.71725789738974 -0.28899815461546
 6  15.57557174757476  2.04190221842184 -1.15860085508551
 6  16.11975455985598  3.39122387518752 -0.58538915211521
 6  17.44899014811481  3.91102894449445 -1.23761769696970
 6  17.15100769046905  4.12044693639364 -2.76939916411641
 6  17.95001440754075  5.23751901720172 -0.59302876177618
 1 -2.65277099989999  1.16871114651465  3.62569303770377
 1 -6.23594157295730  5.56715209560956  0.67278627032703
 1 -8.92160256745674  1.24984528742874 -3.17079255805581
 1 -3.44772583738374 -3.32668798419842  1.91652971377138
 1 -1.83161028492849 -0.99884754635463  2.46908818491849
 1 -2.54323410251025 -2.65516867806781  4.32154569856986
 1 -2.96081687438744 -0.98720862526253  4.76504853465347
 1 -4.20509302100210 -2.11167024792479  4.14284823532353
 1 -2.25992130583058 -3.04718423572357 -0.26620724452445
 1 -1.23033086548655 -1.82725184148415  0.31902002360236
 1 -0.75243067656766 -2.85814711031103  2.43820803950395
 1 -1.38563328492849 -4.42000913211321  1.87652945094509
 1 -2.03863397719772  3.41731125552555  3.98608451815182
 1 -2.68779977007701  4.85230243624362  4.68885514321432
 1 -3.37172016701670  3.12253325082508  5.32797780378038
 1 -5.60524358825883  6.63728792319232  2.62682800420042
 1 -10.26284541804180  3.01010166726673 -3.06489974167417
 1 -10.07120791869187  4.69860370447045 -2.92535282598260
 1 -9.74740454025403  4.07258567256726 -5.47311251355136
 1 -8.17771728112811  4.90612035743574 -4.49561951695170
 1 -8.24299414841484  3.28997835663566 -4.85798572337234
 1 -8.32750033963396 -0.60004054695470 -4.62962396069607
 1 -8.41839282228223 -2.42558596369637 -4.38803144014401
 1 -9.63113319281928 -1.62387921132113 -3.37730463716372
 1 -4.03501085848585 -3.59992481908191 -1.43481676857686
 1  2.52040317331733 -5.96637458045805  1.15280123702370
 1  1.99514025742574 -5.09194617071707 -0.39422287188719
 1  3.54110623292329 -3.89709899169917  2.09072408000800
 1  2.76037102380238 -3.53607922902290 -1.49648218921892
 1  3.71076568986899 -2.00887444674468 -1.53281575207521
 1  4.40974314831483 -3.69983371257126 -1.78690761666167
 1  4.85302534343434 -1.19684610861086  0.49233111661166
 1  5.42575110241024 -2.37127876027603  1.76203108340834
 1  6.66320384708471 -3.71552474457446  0.16666455045505
 1  6.63734389478948 -2.78646625562556 -1.15532612811281
 1  7.39869880118012 -0.82201552665267  0.47432467796780
 1  7.84527663056306 -2.15617220032003  1.63229761506151
 1  8.97249135843584 -1.72451072627263 -1.28207154525453
 1  9.01366588528853 -4.23264203560356 -0.51343513591359
 1  10.70957029782978 -3.49202340444044 -0.65500561406141
 1  9.80127918931893 -3.73616470797080  1.11752219491949
 1  9.71547069766977 -0.09084335813581  0.34136950075008
 1  10.29451954945494 -1.18720525442544  1.59675921592159
 1  12.08936407770777 -1.92668270017002 -0.36746111931193
 1  11.38489457615762 -0.67019992489249 -1.36714804840484
 1  11.69458049154916  1.16575100430043  0.11461190599060
 1  12.48922374567457  0.33251444284428  1.16446472667267
 1  13.19952675337534  0.55749018131813 -1.67169940864086
 1  14.60185952425242 -1.04545275797580  0.72640832083208
 1  13.89259483048305 -1.72745176147615 -0.85838215971597
 1  15.36788777717772 -0.81923512171217 -1.00431732423242
 1  13.47691588578858  2.41359597869787 -0.33068485618562
 1  14.42864956525653  1.63533382258226  0.90831804570457
 1  16.32521417721772  1.31889050175017 -1.11064755545555
 1  15.13619920332033  2.24001791459146 -2.04958633833383
 1  15.41029243384338  4.16809218721872 -0.56617861596160
 1  16.37128989908991  3.39709635103510  0.40243014341434
 1  17.97559124052405  2.94661615281528 -1.15584466406641
 1  16.20998171857186  4.69619614851485 -3.16602896269627
 1  18.03584950845084  4.52807232053205 -3.31548615371537
 1  16.98920912111211  2.95636670667067 -3.21066910151015
 1  18.29931597879788  4.99973119061906  0.44110577477748
 1  18.84239176147615  5.55497965016502 -0.92819973437344
 1  17.07548909980998  5.97647715081508 -0.60411447274727
 1 -5.14893019441944 -7.83599303240324 -0.07048058575858
 1 -6.13394782508251 -6.76666375297530  1.01848535603560
 1 -4.61267943654365 -6.92868444404441  1.41245570217022
 8 -7.80086767836784  6.78884538533853 -0.36165394939494
 1 -8.89074737183718  6.26534217911791 -2.26745242804280

