%nproc=4
%Mem=2GB
# td=(NStates=1) iop(3/107=0140000000,3/108=0140000000) iop(3/107=0140000000,3/108=0140000000) CAM-B3LYP/6-31G(d,p) 

TD

0 1
12 -6.68130070217022  0.57657680178018  0.19128674817482
 6 -4.43937104360436 -1.94239266106611  0.58317859485949
 6 -4.33206502190219  2.91922355545555  0.82827570917092
 6 -9.15566827152715  3.00740476457646 -0.09029853155316
 6 -9.21234933253325 -1.84228725832583 -0.61756181488149
 7 -4.68844391629163  0.53035243294329  0.41227025912591
 6 -3.88088535413541 -0.74216392319232  0.71017157255726
 6 -2.53410682928293 -0.35112687188719  0.99026108840884
 6 -2.62324229002900  1.18135828462846  1.26640880338034
 6 -3.99678594149415  1.65303538873887  0.81646642134213
 6 -2.31135742144214  1.54840663656366  2.62551711451145
 6 -1.52486123452345 -0.74870743414341 -0.13672234593459
 6 -0.04395251355136 -0.85716742334233  0.34133320682068
 6  0.79727080628063 -0.99197643454345 -0.81056923072307
 8  0.77512758085809 -0.64461707420742 -2.01393238343834
 8  1.83207349394939 -1.86365666426643 -0.39711463396340
 7 -6.87082882508251  2.59603997399740  0.45631937983798
 6 -5.63747430833083  3.42508115131513  0.66232252845285
 6 -6.04041825702570  4.88246793159316  0.55193006160616
 6 -7.48171888528853  4.74416050655065  0.35220180348035
 6 -7.87969967386739  3.41536034443444  0.23446827822782
 6 -5.08598351865186  6.08421585208521  0.97849551755176
 6 -8.30355191649165  5.96763368346835  0.38427795149515
 8 -7.97627154335434  7.02433405000500  0.75805366216622
 7 -8.77161071457146  0.61847270647065 -0.32170481958196
 6 -9.49743341574157  1.65523025832583 -0.35394644694469
 6 -10.89776640694070  1.32658252935293 -0.86695247644764
 6 -10.88332268976898 -0.00202929852985 -1.11596245174517
 6 -9.57757942124212 -0.42057022022202 -0.69371144784478
 6 -11.96091286658666  2.32308850195020 -1.24113876467647
 6 -12.04577769826983 -0.84615817811781 -1.38032616631663
 6 -12.53892075417542 -0.67791995719572 -3.03707650235023
 7 -6.88602508540854 -1.25381794309431 -0.00719336383638
 6 -7.92722538413841 -2.30416041274127 -0.29836303430343
 6 -7.36767435253525 -3.66732405480548 -0.36523753385339
 6 -6.11511713291329 -3.47006616751675  0.04238597799780
 6 -5.82505879457946 -2.00988980348035  0.21694787908791
 6 -8.07474599809981 -4.81130850865086 -0.55199801570157
 6 -4.99068527302730 -4.27654345244525  0.09817784348435
 8 -4.77354910361036 -5.47681822012201  0.00754126072607
 6 -3.78299202460246 -3.28462902210221  0.37404205140514
 6 -3.12598610951095 -3.59898607410741  1.80968068106811
 8 -3.94448968906891 -4.03024975977598  2.77193586338634
 8 -1.66100777567757 -3.40311661696170  1.82222216141614
 6 -1.01950047214721 -3.76987207730773  3.05327975317532
 6  2.94217611041104 -2.24389956685669 -1.31709295339534
 6  3.98332209960996 -1.16806380748075 -0.89560509280928
 6  5.06938769416942 -0.94719159055906 -1.78667486908691
 6  5.27906188998900 -1.58780191489149 -3.18454543674367
 6  6.33262708730873 -0.01852950585059 -1.49696625512551
 6  7.43252194619462 -0.84201998409841 -0.86242297959796
 6  8.61541410171017  0.20167580218022 -0.30942942344234
 6  9.86002909230923 -0.57736465676568  0.05939763406341
 6  9.56821433773377 -1.59089790449045  1.26079044784478
 6  10.91072340234023  0.58758361256126  0.40237507590759
 6  12.39468473897390 -0.10076876967697  0.13442175337534
 6  13.53202474507451  0.77719499419942  0.41562446084608
 6  14.82753908910891  0.02888616671667  0.29021368346835
 6  14.90445543364337 -0.59216149664966  1.71003092709271
 6  15.90375000340034  1.18365326732673  0.23589679497950
 6  17.32455193329333  0.53194841924192 -0.17377425132513
 6  18.46017556495650  1.74676186738674 -0.20859100590059
 6  19.80360256135614  1.11611010581058 -0.41012109580958
 6  19.79927972927293  0.39718514881488 -1.75026081728173
 6  20.95081225012501  2.17995941394139 -0.28128322422242
 1 -3.48916955525553  3.90858210921092  1.13379278097810
 1 -10.06202018451845  3.82189127422742 -0.09783341724172
 1 -9.89949244084408 -2.18989938923892 -1.11248407430743
 1 -1.94371688848885 -0.73391100890089  1.81342139043904
 1 -1.86434577317732  1.55563603980398  0.86873332673267
 1 -1.44555593929393  0.92841115551555  3.00917162826283
 1 -2.31955012891289  2.59704828122812  2.74829094689469
 1 -3.11528386088609  1.23809169446945  3.35615148424843
 1 -1.82683170347035 -1.53270454345435 -0.55351313811381
 1 -1.70717588658866  0.12282080918092 -1.11375116591659
 1 -0.02985498719872 -0.30559199249925  1.02131799699970
 1  0.01155743594359 -1.66316265006501  0.89026925902590
 1 -4.17448197859786  6.54629245714571  0.02950790849085
 1 -5.61846212681268  6.77899057495750  1.50525743184319
 1 -4.11282231043104  5.42532149314931  1.77249502180218
 1 -9.51046406050605  5.49247435663566  0.03153677787779
 1 -11.93307286088609 -2.05113598109811 -1.09881430863086
 1 -12.89864607960796 -0.44097769796980 -0.48433607000700
 1 -13.70685850895090 -1.35209732513251 -3.12172929002900
 1 -12.80886785058506  0.60379780128013 -3.51913408290829
 1 -11.63280010441044 -1.27314063106311 -3.67372397979798
 1 -8.79739892319232 -4.72097865346535 -1.37802003000300
 1 -7.54958017261726 -5.68039805240524 -0.89092874477448
 1 -8.76367364736474 -5.16174813601360  0.52762737223722
 1 -2.80131971337134 -3.20174389928993 -0.20983929072907
 1  3.26062767816782 -2.98245551935194 -0.84355007210721
 1  2.76464075287529 -2.11350726572657 -2.53647388268827
 1  3.81278860656066 -0.46883963236324 -0.05351174957496
 1  4.61823488048805 -1.16670014251425 -4.10717083208321
 1  6.34071765016502 -1.71885056045605 -3.39361058495850
 1  5.12223605100510 -2.42880549484948 -2.82208639243924
 1  6.58017843974398  0.45090042744274 -2.36109872707271
 1  5.85365047444744  0.92005755355536 -0.71757602100210
 1  7.11712289118912 -1.54222241934193 -0.11920019841984
 1  8.25608100650065 -1.42841163146315 -1.68675815171517
 1  8.77041917331733  0.76308690349035 -1.35779856515652
 1  8.53831232933293  0.58123331153115  0.68562427082708
 1  10.24669711681168 -1.35925336903690 -0.89703686128613
 1  8.65208745304530 -2.42581139683968  1.12538089888989
 1  10.63062913231323 -2.45505938713871  1.61629352075208
 1  9.01891510311031 -1.04160538293829  2.41225253035304
 1  10.66500013781378  1.62330509040904 -0.24188135973598
 1  11.01270101670167  0.93792266786679  1.91152503280328
 1  12.70079762196220 -1.34987742724272  0.85430911421142
 1  12.67935008900890 -0.21982020262026 -1.16743974147415
 1  13.45530040004000  1.76553609860986 -0.27300620522052
 1  13.53536558135814  1.26172042334233  1.37437322672267
 1  14.97769919571957 -0.70032754875488 -0.25485367656766
 1  14.63668356825683 -0.37179678417842  2.67995076807681
 1  14.17470474397440 -1.17505517741774  1.57472497059706
 1  16.04048108120812 -0.82792637573757  1.90888736643664
 1  15.60011114601460  1.88927892129213 -0.39154912961296
 1  16.32658669126912  1.34258379387939  1.38785710891089
 1  17.38776009110911 -0.28578540794079  0.39293948064806
 1  17.21715924012401  0.11872004120412 -1.18357973537354
 1  18.38140314741474  2.10503705150515 -1.11430441874187
 1  18.33807380348035  2.00941484838484  0.81333800430043
 1  19.99513207440744  0.40171301750175  0.38377172797280
 1  19.64947326532653  1.22679772937294 -2.44482660786079
 1  20.69156344634463  0.11043924212421 -1.58513264666467
 1  19.05951867886789 -0.18815653405340 -2.17754582928293
 1  20.90105688428843  2.84923450255026  0.72677343094309
 1  21.69172691299130  1.78072465516552 -0.28603131813181
 1  20.70393704660466  2.69822730993099 -1.06698149444944
 1 -0.27719334443444 -4.24949769916992  2.51958030603060
 1 -1.74828450945094 -4.21226850055005  4.22092272887289
 1 -0.08556256955696 -2.95621409850985  3.38081223442344
 8 -12.08584695899590  3.61608640784078 -1.09984179787979
 1 -12.77942845434544  1.84105534563456 -1.90440104510451

