%nproc=4
%Mem=4GB
# td=(NStates=1) iop(3/107=0140000000,3/108=0140000000) iop(3/107=0140000000,3/108=0140000000) CAM-B3LYP/6-31G(d,p) 

TD

0 1
12 -5.70382188878888  1.24398927322732  0.23289189438944
 6 -5.09268965616562 -2.17470593389339 -0.31350821762176
 6 -3.40778956805681  1.26455674047405  2.64944031733173
 6 -6.16120491619162  4.59723298749875  0.64954516331633
 6 -8.04805057215722  1.16313716441644 -2.34872254575458
 7 -4.38177243054305 -0.27782597439744  0.95807714651465
 6 -4.28662218971897 -1.63912761436144  0.61747409700970
 6 -3.25511863636364 -2.32459576237624  1.49663402710271
 6 -2.90940411141114 -1.18954184508451  2.56083263936394
 6 -3.53628105550555  0.04195156745675  1.99207379257926
 6 -3.39891293069307 -1.52002544394439  4.01344404380438
 6 -2.02796798999900 -2.79927733703370  0.58750405590559
 6 -0.98207985148515 -3.63500108070807  1.32878646664666
 6  0.22772787328733 -3.88113195389539  0.48502669736974
 8  0.51920198449845 -3.25519283288329 -0.52743897809781
 8  0.95318216391639 -4.84479409670967  1.13692830013001
 7 -4.92813362966297  2.68183756065607  1.39836006770677
 6 -3.97505959575958  2.43795121682168  2.37750835413541
 6 -3.70889039273927  3.66511501370137  3.16431698789879
 6 -4.54703525622562  4.65225675397540  2.59883915521552
 6 -5.34026013021302  4.03400149534953  1.48035412771277
 6 -2.72282764586459  3.78621599739974  4.35674986438644
 6 -4.77701423202320  6.10962838333833  2.93909341414141
 8 -4.10773082108211  6.57820570857086  3.89131303120312
 7 -6.99639343924392  2.57706760256026 -0.70106176247625
 6 -6.94989770457046  3.84143376057606 -0.26403809250925
 6 -7.92133732013201  4.55132185698570 -1.16954106360636
 6 -8.45827528082808  3.66465339523952 -2.08904784918492
 6 -7.78977786828683  2.38688469726973 -1.77342328882888
 6 -8.35484847574758  6.05751566096610 -1.16859636843684
 6 -9.46667103040304  3.87697809600960 -3.15720035283528
 6 -8.73287474117412  4.21212935913591 -4.45529193319332
 7 -6.51357977697770 -0.12605762346235 -0.99807489948995
 6 -7.45070460006001 -0.01997806640664 -2.04801901260126
 6 -7.62025953315332 -1.31134283788379 -2.66618914151415
 6 -6.71309085788579 -2.09061863366337 -2.01367753345335
 6 -6.06340475587559 -1.40353391849185 -1.04070020042004
 6 -8.42910836863686 -1.79637976397640 -3.76702359855986
 6 -6.19908357545755 -3.53835941984198 -2.05524908000800
 8 -6.54989938543854 -4.49926762516252 -2.71777804290429
 6 -5.03054161626163 -3.64447249984998 -0.93306562636264
 6 -5.20815829322932 -4.68086352745275  0.08495216701670
 8 -5.57279305090509 -4.51858086618662  1.18944530793079
 8 -4.88421812001200 -5.86609780618062 -0.42534567916792
 6 -4.94669223342334 -6.98268012131213  0.48479030883088
 6  2.34723569676968 -5.13618473867387  0.57383133753375
 6  3.40884541954195 -4.25101526242624  1.04964286408641
 6  4.03495288548855 -3.24839770987099  0.33270690569057
 6  3.82985732463246 -3.21003594489449 -1.20434993949395
 6  5.21192761856186 -2.50089513711371  0.84759855865587
 6  6.56579145044504 -2.69243216841684  0.06099756715672
 6  7.67565288888889 -1.76631598709871  0.62362805330533
 6  8.95800662196220 -1.98521335493549 -0.03358114061406
 6  9.53761014271427 -3.42729336973697  0.19409595189519
 6  9.97662824192419 -0.86060629802980  0.50632314781478
 6  11.35663296569657 -0.89809941684168 -0.33429219541954
 6  12.23529121772177  0.33991861936194  0.22672952055206
 6  13.52958541434143  0.48848371827183 -0.50191495469547
 6  14.37949624862486 -0.80675007760776 -0.32683683458346
 6  14.19785572517252  1.79548572017202 -0.16182543734373
 6  15.45890008040804  2.17320534873487 -0.91749674467447
 6  16.04061664606461  3.48275302810281 -0.59036965016502
 6  17.34894014311431  3.83882172377238 -1.39746368156816
 6  17.14974756445644  3.79036392809281 -2.90701292549255
 6  17.99489889598960  5.19916518181818 -0.94583404230423
 1 -2.66651237403740  1.46299057445745  3.37055752415242
 1 -6.23342132093209  5.77516289668967  0.55161415311531
 1 -8.72676308350835  1.14418472137214 -3.17322280108011
 1 -3.80929199399940 -3.31062637803780  1.90226828762876
 1 -1.84069119301930 -1.21380904250425  2.71211248734874
 1 -2.84770454955496 -2.42785594679468  4.34201774577458
 1 -2.93977477017702 -0.83526343074307  4.86709873967397
 1 -4.59084159585959 -1.77549663056306  3.94854880538054
 1 -2.41464677837784 -3.25475499279928 -0.23469409320932
 1 -1.58230606300630 -1.93444256055606  0.01218934053405
 1 -0.56515194869487 -3.37623891949195  2.12777699639964
 1 -1.33109783138314 -4.72162929412941  1.62498429642964
 1 -1.85674578837884  3.21746127052705  4.20641655135514
 1 -2.62950394049405  4.90925813181318  4.51333759145915
 1 -3.30466346134614  3.49603060056006  5.48194320032003
 1 -5.49582264616462  6.79664385878588  2.56011133253325
 1 -10.03051218471847  2.97175783288329 -3.26137938963897
 1 -10.12461325922592  4.76976082018202 -2.83574386508651
 1 -9.55115491529153  4.17322573657366 -5.15542074437444
 1 -8.07887739713971  5.05557530293029 -4.53950390539054
 1 -8.16993684268427  3.23164252305230 -4.74930485528553
 1 -8.37623521312131 -1.15150569346935 -4.60739173747375
 1 -7.89440042304230 -2.84504790989099 -4.19168180518052
 1 -9.55893597309731 -2.02065888928893 -3.40571747844784
 1 -4.12557991539154 -3.77712253885389 -1.62632591949195
 1  2.59385051805181 -6.06932487548755  1.07752370927093
 1  2.05977672107211 -5.11086806290629 -0.58144159375938
 1  3.72473459575958 -4.46440572237224  2.00989599719972
 1  2.90561554825483 -3.43981960306031 -1.65769831083108
 1  4.02693730703070 -2.31710526982698 -1.57062953345335
 1  4.67809998399840 -3.58403213241324 -1.71852077797780
 1  4.89754979587959 -1.45868229222922  0.69142102560256
 1  5.33321184848485 -2.57453908630863  2.00134501480148
 1  6.90286781348135 -3.77792098419842  0.13262114611461
 1  6.25465562596260 -2.46343395239524 -0.92352294779478
 1  7.18477740904090 -0.75904923002300  0.55310255575558
 1  7.77250935383538 -1.81138772187219  1.63641802710271
 1  8.76982109140914 -2.19950822602260 -1.16153949204920
 1  9.00792531123112 -4.01478024942494 -0.44666845924592
 1  10.49411875267527 -3.33355755785579 -0.32908302180218
 1  9.75836489788979 -3.67615870737074  1.24309475217522
 1  9.55046419701970  0.23343907010701  0.06764212801280
 1  10.26572667016702 -0.68373490739074  1.50029956995700
 1  11.87272241354135 -1.86596662856286 -0.02819719291929
 1  11.37496358305830 -0.87199010391039 -1.44106544014401
 1  11.67329836333633  1.17416184538454  0.08212865766577
 1  12.28709353265326 -0.03979278787879  1.36708498869887
 1  13.39353615431543  0.51025545784578 -1.67683992269227
 1  14.85518485678568 -0.99857807050705  0.70738641864186
 1  13.91135670667067 -1.73760277657766 -0.67809413091309
 1  15.13458444684468 -0.71390458865887 -0.82369926242624
 1  13.49930812501250  2.55068968806881 -0.38958074577458
 1  14.46690339063906  1.91339162836284  0.88596581048105
 1  16.20151180698070  1.49206781948195 -0.81440793149315
 1  15.17775335873587  2.21699561236124 -2.00490186988699
 1  15.29903130773077  4.20683606160616 -0.83325532363236
 1  16.26329910001000  3.58736537793779  0.50238013841384
 1  17.97986166756676  3.12715420662066 -1.22569164876488
 1  16.37800852125212  4.61492802170217 -2.95609796959696
 1  18.11874779827983  3.94077359065907 -3.34134873997400
 1  16.60633083328333  2.83508457845785 -3.24087212181218
 1  18.44692073927392  5.30404162166217  0.17043870807081
 1  18.82992051435144  5.41806595879588 -1.52507942234223
 1  17.19602115301530  6.01651115421542 -1.08078213951395
 1 -4.64931023242324 -7.97201663476348  0.13802026432643
 1 -5.91326575687569 -7.21427851445145  0.70858436593659
 1 -4.54074224282428 -6.90013158875888  1.39445390199020
 8 -7.90068766036604  6.86961346214621 -0.32022980698070
 1 -9.16578487558756  6.58818446334633 -1.76843252605260

