%nproc=4
%Mem=2GB
# td=(NStates=1) iop(3/107=0140000000,3/108=0140000000) iop(3/107=0140000000,3/108=0140000000) CAM-B3LYP/6-31G(d,p) 

TD

0 1
12 -6.86105867796780  0.64411355545555  0.08760638013801
 6 -4.39837694419442 -2.08235665746575  0.35104538153815
 6 -4.22944475987599  2.80850248334833  0.90549343094309
 6 -8.92693539823983  3.16639066316632 -0.20123962566257
 6 -9.34358245584558 -1.87109013861386 -0.63391345004500
 7 -4.62283735563556  0.51137053475348  0.57161619371937
 6 -4.04150141574157 -0.73614332113211  0.59005956135614
 6 -2.58495191379138 -0.64318607780778  0.86718878117812
 6 -2.34836480228023  0.99910005880588  1.09101126362636
 6 -3.86811307420742  1.41177126232623  0.79434420912091
 6 -1.94003028872887  1.28303009890989  2.44355891869187
 6 -1.65607435583558 -1.05918848224822 -0.27899657335734
 6 -0.06851496979698 -1.09832153875388  0.21846091959196
 6  0.80673175237524 -1.27348458535854 -0.91988016181618
 8  0.73888395649565 -0.87014962746275 -2.00923191339134
 8  1.84500478707871 -1.92324262286229 -0.26598152065207
 7 -6.55658740094009  2.70237060706071  0.18844259215922
 6 -5.50606116701670  3.30186883008301  0.70127642384238
 6 -5.89012322752275  4.77982766756676  0.68185305390539
 6 -7.11989270267027  4.96632272277228  0.39908649194919
 6 -7.68852055595560  3.57597640604060  0.10807563896390
 6 -4.84845976627663  5.80193762426243  1.02021968996900
 6 -7.62549411071107  6.17764468456846  0.18645816951695
 8 -7.30999491569157  7.25531714831483  0.53222107890789
 7 -8.82739629312931  0.69560041924192 -0.21861451055105
 6 -9.48377204960496  1.84244898019802 -0.47264831713171
 6 -10.85699232953295  1.51267113821382 -0.79879566076608
 6 -11.08929328682868  0.17186809120912 -0.81050190569057
 6 -9.61343300660066 -0.39720788398840 -0.50184226092609
 6 -11.93041981728173  2.45325151825183 -0.97962261306131
 6 -12.29714283478348 -0.57071063336334 -1.09393752745275
 6 -12.30816767886789 -0.95470763596360 -2.53851664636464
 7 -6.86588307120712 -1.40966352765277 -0.24612725722572
 6 -8.09201186278628 -2.28523852055206 -0.43384658265827
 6 -7.67827541264126 -3.74559188158816 -0.23741475157516
 6 -6.17591321252125 -3.55417457835784 -0.10215847644765
 6 -5.77506379507951 -2.22332114661466  0.07845402970297
 6 -8.49731825532553 -4.93530090789079 -0.46388920482048
 6 -4.92359856435644 -4.41422722082208  0.08551657735774
 8 -4.82385413411341 -5.52530306860686 -0.20360985438544
 6 -3.90227395279528 -3.37640820002000  0.42520716791679
 6 -3.36390990189019 -3.68446462196220  1.84808452145215
 8 -3.88503374347435 -4.14152088688869  2.65247391719172
 8 -1.90174184908491 -3.42724903020302  1.69618955815582
 6 -1.06002452455246 -3.62960805090509  3.02840726592659
 6  2.95751764456446 -2.19001417831783 -1.22682392649265
 6  4.05730949834984 -1.18411541264126 -1.13730926322632
 6  5.06205696109611 -1.10810768216822 -1.94494069566957
 6  5.41399538333833 -1.77977111181118 -3.08612559475948
 6  6.10334415901590  0.02324467156716 -1.47528408690869
 6  7.38901759575958 -0.59318510061006 -0.95262199949995
 6  8.38017057735773  0.35072070667067 -0.59952843334333
 6  9.65156824622462 -0.42747966826683  0.16058775307531
 6  9.30337785408541 -0.87876669136914  1.81941631043104
 6  10.83121545154516  0.59293414761476  0.11364620302030
 6  12.33719899039904 -0.16740543334333  0.54236254745475
 6  13.31335287788779  0.90531780648065  0.62976587498750
 6  14.73566990219022  0.21263454155416  0.62363702580258
 6  15.11729671777178 -0.33784606510651  1.92888281228123
 6  15.85382501090109  1.15841074307431  0.23061626692669
 6  17.22565204330433  0.63234845924592 -0.20410728462846
 6  18.34340388778878  1.76342353355336 -0.22561270807081
 6  19.70287248834883  1.25294378917892 -0.47074715841584
 6  19.89109891119112  0.24378980928093 -1.71695748694869
 6  20.74189135803580  2.43552497049705 -0.46047114301430
 1 -3.70919155745575  3.38596984798480  1.32815221692169
 1 -9.63388737123712  4.13682276737674 -0.44049768366837
 1 -10.19835232683268 -2.67916831613161 -1.09307213311331
 1 -2.30799331613161 -1.03675129292929  1.90695074337434
 1 -1.56987632623262  1.13296377257726  0.42024847824782
 1 -0.96020740444044  0.88134644904491  2.66735744684468
 1 -1.90046822072207  2.36303487988799  2.68837495529553
 1 -2.73345567806781  0.79968785408541  2.89917578667867
 1 -2.09544856515652 -2.41609288228823 -0.53979176597660
 1 -1.45310047904790 -0.60313178607861 -1.27450724152415
 1  0.10228822712271 -0.40016144944494  0.87756362156216
 1  0.22336861706171 -1.98393472727273  0.64238447054705
 1 -4.24052858325833  6.59096692459246 -0.23359840214021
 1 -5.77297757835784  6.64071674757476  1.51024793089309
 1 -4.03719474767477  5.27590655165517  1.38398617091709
 1 -8.57225023912391  6.20948605780578 -0.10704708050805
 1 -12.14772432603260 -1.86020688818882 -0.54985941314131
 1 -13.32373858885889  0.06718311811181 -0.88802643904390
 1 -13.09309713281328 -1.68283039843984 -2.71827894499450
 1 -12.49553651745175  0.03405082658266 -3.13079524902490
 1 -11.43075990039004 -1.28382169916992 -2.99108571597160
 1 -8.77887707100710 -5.03020957655766 -1.45706793479348
 1 -7.70422563716372 -5.78691870447045 -0.18444809670967
 1 -9.25192247224722 -4.68185014621462  0.66886149564956
 1 -3.04654423582358 -3.60112383728373 -0.48071637843784
 1  3.23002461786179 -3.15859313311331 -0.52416813391339
 1  2.41660594939494 -2.33235915091509 -2.10798103340334
 1  4.04075140284028 -0.35224797319732 -0.27239363776378
 1  4.53589664666467 -1.25926939943994 -3.76133624862486
 1  6.21910548894890 -1.45801447684769 -3.54282550645064
 1  5.19990381778178 -2.84401701600160 -3.08637282108211
 1  6.24627504940494  0.48718405580558 -2.42330494769477
 1  5.92896800620062  0.81641718951895 -0.62967723112311
 1  7.28851002990299 -1.30818901600160 -0.08530680908091
 1  8.01674707310731 -1.53362215251525 -1.51625110101010
 1  8.83017514891489  0.75460605540554 -1.68311109640964
 1  8.00089858795880  1.24678986718672  0.20618632703270
 1  9.91081352845285 -1.52745018871887 -0.39514667226723
 1  8.39967221152115 -1.22692150785079  1.78875723652365
 1  10.18614468386839 -1.64057793899390  1.96459835123512
 1  9.16114932653266 -0.06375759815982  2.64476578167817
 1  11.11544518231823  1.23818657855786 -1.14266143774377
 1  10.34382412901290  1.41097997359736  0.90305418571857
 1  12.01680922312231 -0.59407184668467  1.73186686998700
 1  12.88362051605161 -0.86239446004600 -0.55375837333733
 1  13.45970084008401  1.59013855885589 -0.23546245084508
 1  13.26697874267427  1.57613186448645  1.29396518591859
 1  14.67516894269427 -0.63083059905991 -0.13773196439644
 1  14.96304620452045  0.29343973947395  2.90728350135014
 1  14.46655392889289 -0.77927559945995  1.97609510761076
 1  16.01907894099410 -0.68870245334533  1.94772124982498
 1  15.55242637753775  1.85930592399240 -0.68529850455045
 1  16.12424645724573  1.87161669716972  0.99308763196320
 1  17.62874418951895 -0.04919174857486  0.39542972967297
 1  16.95340286448645  0.02622079127913 -0.86932831023102
 1  17.82999800690069  2.41331787958796 -0.80727371567157
 1  18.54384438053805  2.37144105100510  0.64586125662566
 1  20.11212377357736  0.56332917911791  0.38492184298430
 1  19.99702802080208  0.73081813141314 -2.70314243944394
 1  20.90134442444244 -0.38372017381738 -1.59812394579458
 1  18.95401812881288 -0.45003272167217 -1.59458753345335
 1  20.91957873647365  2.91830140924092  0.52673342694269
 1  21.74129186948695  1.81048763146315 -0.68857157215722
 1  20.79565621852185  3.14982246944694 -1.30974577087709
 1  0.16710108500850 -3.61957470687069  2.81004935293529
 1 -1.25118479947995 -4.93285055875588  3.40132076867687
 1 -1.68268228152815 -2.62556103320332  3.71207536073607
 8 -11.89165754005401  3.66306110531053 -0.72476429012901
 1 -12.95784629612961  2.24700594069407 -1.28891949694970

