%nproc=4
%Mem=4GB
# td=(NStates=1) iop(3/107=0140000000,3/108=0140000000) iop(3/107=0140000000,3/108=0140000000) CAM-B3LYP/6-31G(d,p) 

TD

0 1
12 -5.66012751935193  1.20797567186719  0.17869647484748
 6 -5.03647403460346 -2.06036449974998 -0.37797466426643
 6 -3.40742953205321  1.17820810561056  2.83350872417242
 6 -6.21833062876288  4.54850811501150  0.67048725752575
 6 -8.01444721182118  1.20259110981098 -2.31975964946495
 7 -4.29322357565757 -0.27707589938994  1.08964030283028
 6 -4.23485701320132 -1.48518221982198  0.64441679127913
 6 -3.20557368186819 -2.28380168296830  1.43562792649265
 6 -3.01102427342734 -1.35608849974998  2.73851040714071
 6 -3.62468989638964 -0.05544817251725  2.24672925812581
 6 -3.58786182558256 -1.90338377977798  4.04668736813681
 6 -1.93145833903390 -2.66370377967797  0.71328663416342
 6 -0.93867551105111 -3.42551013161316  1.52299588758876
 6  0.22498759925993 -3.94721856255626  0.64609280398040
 8  0.54402446674667 -3.52185949954996 -0.52797903210321
 8  1.04464130983098 -4.70303992129213  1.39142374967497
 7 -5.02858367466747  2.58336771367137  1.50140037173717
 6 -4.07727981778178  2.40980840254025  2.43546414971497
 6 -3.78412791649165  3.64339284148415  3.11159171537154
 6 -4.68150870357036  4.61789331763176  2.56360563186319
 6 -5.41407751195120  3.93849194439444  1.55274136643664
 6 -2.75220058315832  3.85567294309431  4.21606579597960
 6 -4.54123065366537  6.01801922242224  2.87344684948495
 8 -4.04433448144814  6.59845773377338  3.78714261416142
 7 -6.95871967186719  2.60069996579658 -0.68775043134313
 6 -6.95738845364536  3.96037565476548 -0.45488717741774
 6 -7.97402258865887  4.62877960276028 -1.21580569006901
 6 -8.49121857515751  3.58112504240424 -2.01957090149015
 6 -7.79933882438244  2.39821583038304 -1.75419136563656
 6 -8.40858384928493  6.01672158155816 -1.18219772857286
 6 -9.49237360066007  3.79610000820082 -3.15670030283028
 6 -8.80702215591559  4.12876102230223 -4.42453885788579
 7 -6.43520193919392 -0.10908592629263 -1.12359745174517
 6 -7.42872240184018 -0.09244531313131 -2.05734994569457
 6 -7.56543405060506 -1.31096279987999 -2.72820534313431
 6 -6.76996654545455 -2.12264183598360 -2.11693785948595
 6 -6.02303071847185 -1.38108167326733 -1.15527165756576
 6 -8.55615107290729 -1.65553567956796 -3.80063695989599
 6 -6.26282995009501 -3.54230981488149 -2.01959551465147
 8 -6.62814721022102 -4.53324102250225 -2.63525979107911
 6 -5.09667822992299 -3.43007105970597 -0.88553087288729
 6 -5.29793727112711 -4.55765120622062  0.07500117191719
 8 -5.71621739333933 -4.47913692179218  1.18372473587359
 8 -4.92295199339934 -5.79161035743574 -0.55988913351335
 6 -5.02974053825383 -6.93475532883288  0.41956378617862
 6  2.36107708090809 -5.16287740794079  0.68489244364436
 6  3.48528306330633 -4.23972413331333  1.12228012781278
 6  4.19538892909291 -3.39176204630463  0.16606024102410
 6  3.77052139103910 -3.22136707800780 -1.27771727622762
 6  5.22356878267827 -2.44779982758276  0.81545534433443
 6  6.62887775907591 -2.67269019421942  0.04970643804380
 6  7.57532285588559 -1.72674202970297  0.67982367286729
 6  9.08230905220522 -1.87248208180818 -0.07033481598160
 6  9.60412679437944 -3.38003864426443 -0.03410686838684
 6  9.96207678677868 -0.75949618701870  0.40464297979798
 6  11.25610291269127 -0.79062866976698 -0.35709447564756
 6  12.21898958755875  0.25828045554555  0.11960880848085
 6  13.52664512031203  0.38717358725873 -0.63310807400740
 6  14.53737203620362 -0.80275967856786 -0.44385853675368
 6  14.33204914451445  1.64399057065707 -0.28539779457946
 6  15.52463665406541  2.08345637383738 -1.02540753575358
 6  16.13813639803980  3.48173292609261 -0.67611822502250
 6  17.49731498059806  3.92556039763976 -1.33387732293229
 6  17.26645923562356  4.05857074877488 -2.79481170537054
 6  17.97230663676368  5.14494976027603 -0.66440589948995
 1 -2.80193591639164  1.31628590399040  3.64096456485649
 1 -6.31355933473347  5.58911429182918  0.73390238193819
 1 -8.85375578277828  0.97495779867987 -3.20436591539154
 1 -3.81618268306831 -3.28573388878888  1.76426448724872
 1 -1.90487761166117 -1.17972563416342  2.82138341444144
 1 -3.16721650075008 -2.65067822902290  4.51850539453945
 1 -3.61821261396140 -0.93375327972797  4.66646867666767
 1 -4.69729224092409 -1.97495657655766  3.91735568606861
 1 -2.23565887958796 -3.25352486978698 -0.17706833063306
 1 -1.56719455185519 -1.74509362566257  0.20978910051005
 1 -0.42461789528953 -2.90433172877288  2.36233045174517
 1 -1.55763048464846 -4.31035816701670  1.85769756775678
 1 -1.69486960076008  3.26851637603760  4.15335124482448
 1 -2.69313030313031  4.88197540354035  4.35244150185019
 1 -3.32565556055606  3.47823882138214  5.25719072507251
 1 -5.11254431833183  6.50065425982598  2.12992831423142
 1 -10.24148328182818  2.86938759585959 -3.30772402410241
 1 -10.09030982888289  4.64255809990999 -2.94401469216922
 1 -9.35081488128813  4.10089850385039 -5.27057225952595
 1 -8.10773028242824  5.04338408380838 -4.57670762576258
 1 -8.16632648164816  3.31858121692169 -4.74226415121512
 1 -8.36313390299030 -1.22643318621862 -4.86939793809381
 1 -8.11409239223923 -2.56299970507051 -3.96831946894689
 1 -9.56100618011801 -1.53092991639164 -3.36231313801380
 1 -4.02911026842684 -3.58868369496950 -1.34557784468447
 1  2.50032116511651 -6.21418936193619  1.22740869776978
 1  2.14556529992999 -5.15338231433143 -0.31457490709071
 1  3.84449657195720 -4.16066534833483  2.15665067266727
 1  2.73115810251025 -3.65514113521352 -1.39781232223222
 1  3.68751336463646 -2.04680824012401 -1.52515498599860
 1  4.79601177517752 -3.57456118531853 -1.79164809070907
 1  5.07283732463246 -1.38945536953695  0.52451433493349
 1  5.35038356565657 -2.59105073747375  2.03095797609761
 1  6.85795332203220 -3.73468666076608  0.11087897189719
 1  6.35469562996300 -2.55695330433043 -1.23022361786179
 1  7.18587751905191 -0.69723304840484  0.68366561206121
 1  7.55090719361936 -2.07341392449245  2.00420480578058
 1  8.92736684598460 -1.74658293349335 -1.16014935303530
 1  8.88260277897790 -4.05185395679568 -0.61520531293129
 1  10.60429977077708 -3.53334753685369 -0.62094220772077
 1  9.71169023042304 -3.63410450195019  1.04906534923492
 1  9.41348049864987  0.30695642184218  0.44150951475147
 1  10.15098519601960 -1.19292582648265  1.38222776277628
 1  11.85868100940094 -1.68757878977898 -0.27843221642164
 1  11.10826691339134 -0.74050695559556 -1.50893222682268
 1  11.80758179167917  1.28481291049105 -0.19963951915192
 1  12.21877670097010  0.24379557095710  1.29631791199120
 1  13.43064986568657  0.09338377067707 -1.81849408810881
 1  14.98994833313331 -0.72122033473347  0.67358303830383
 1  13.91989756075608 -1.83993300960096 -0.68878520002000
 1  15.37046803520352 -0.76312951115111 -1.11318821132113
 1  13.63518171237124  2.57083170227023 -0.35681746944694
 1  14.63030973127313  1.74364465366537  0.87952516641664
 1  16.23872552835283  1.25681429412941 -0.80211670237024
 1  15.38915449884989  1.90574448724872 -2.05735711541154
 1  15.41140254485449  4.34061943994399 -0.83781577967797
 1  16.11645441554155  3.40152679407941  0.42403230363036
 1  18.09707338873887  2.92679417061706 -1.04254333393339
 1  16.52472319271927  4.89571610051005 -2.89477183698370
 1  18.19367529102911  4.28083759705971 -3.32526713181318
 1  16.72658285848585  3.28361943194319 -3.26477451205121
 1  18.30418646584658  4.82795401290129  0.42160382458246
 1  18.89435695799580  5.47280143234323 -1.24668158255826
 1  17.12310386128613  5.88493799689969 -0.45411947324733
 1 -4.30931623302330 -7.84407384048405 -0.13948748644864
 1 -6.18224265456546 -6.98451553815382  0.61714522202220
 1 -4.51494966356636 -6.75544712031203  1.27944240084008
 8 -7.92481007260726  6.87101360216022 -0.42592037603760
 1 -9.14383268036804  6.23983962886289 -1.91802748554855

