%nproc=4
%Mem=2GB
# td=(NStates=1) iop(3/107=0140000000,3/108=0140000000) iop(3/107=0140000000,3/108=0140000000) CAM-B3LYP/6-31G(d,p) 

TD

0 1
12 -6.93073564566457  0.48880802490249  0.15640325982598
 6 -4.51067817431743 -1.98706712851285  0.38752902990299
 6 -4.28830064546455  2.84442607570757  0.92676555815582
 6 -9.08939164386439  3.10840486458646 -0.19694919661966
 6 -9.41257935553555 -1.80617364696470 -0.54127418611861
 7 -4.67934300620062  0.53431282898290  0.49666869896990
 6 -3.91986925252525 -0.74301400820082  0.57885844124412
 6 -2.45660907950795 -0.35672743194319  0.78278034033403
 6 -2.61830179597960  1.17101725052505  1.11407356985699
 6 -3.93263952685269  1.54234431963196  0.83230800550055
 6 -2.03958024372437  1.37228902480248  2.49475403820382
 6 -1.47400614901490 -0.69980254365437 -0.40692936663666
 6 -0.22565068336834 -1.33992569916992  0.19467854135414
 6  0.88643972317232 -1.24692192909291 -0.71108928272827
 8  0.93986405450545 -0.82643525602560 -1.94078506870687
 8  1.92166245284528 -2.07469776837684 -0.34750967346735
 7 -6.65492723492349  2.56625699569957  0.37055080298030
 6 -5.63727428832883  3.40727937113711  0.71814811101110
 6 -6.01792600780078  4.78878856365637  0.53212808140814
 6 -7.28382909630963  4.91136722722272  0.29066564986499
 6 -7.75762746664666  3.48781759015902  0.12768760016002
 6 -5.13938885918592  5.87980541104110  0.83470113811381
 6 -8.18784034533453  6.00593751385138  0.15223474717472
 8 -7.69495341154115  7.25657727432743  0.28017587438744
 7 -8.90699425292529  0.56350720992099 -0.22368501760176
 6 -9.67217088948895  1.67557229252925 -0.32942399469947
 6 -11.05432206250625  1.46126599769977 -0.68665444664466
 6 -11.02429678717872  0.03516442084208 -0.82951380688069
 6 -9.83857552085208 -0.48505666886689 -0.53731580828083
 6 -12.04252102740274  2.49990618371837 -0.98682333313331
 6 -12.33929705020502 -0.60218378067807 -0.98799693339334
 6 -12.38561542364237 -1.13792595779578 -2.64000679537954
 7 -6.88081456435644 -1.44934749604961 -0.06585923042304
 6 -7.96329899149915 -2.23708370507051 -0.37628082608261
 6 -7.58842642774277 -3.59847717011701 -0.35269627972797
 6 -6.17061268246825 -3.61115027592759 -0.16792505310531
 6 -5.85953224192419 -2.19530834533453  0.07462364666467
 6 -8.48918744224422 -4.76132351015102 -0.46250906680668
 6 -5.18770497499750 -4.45911170927093  0.04363238893889
 8 -5.03879562826283 -5.61332187048705  0.10289079567957
 6 -3.86757048244824 -3.32112267146715  0.31082572977298
 6 -3.32285579647965 -3.62741891739174  1.74619433243324
 8 -3.74273951405141 -3.94589132393239  2.79543821362136
 8 -1.91618329322932 -3.47554385968597  1.52993293249325
 6 -1.09153767586759 -3.87874296439644  2.75881030623062
 6  3.11065295809581 -2.16486166306631 -1.20032127622762
 6  4.14823859125913 -1.28309531063106 -0.82465799809981
 6  5.13869462486249 -0.92943981538154 -1.63430963256326
 6  5.30438442224222 -1.39660279497950 -2.89658664086409
 6  6.29025284988499  0.07936028312831 -1.23314987348735
 6  7.49639833383338 -0.59039482158216 -0.70634737203720
 6  8.49641220152015  0.46679231383138 -0.52540102060206
 6  9.81972506190619 -0.38421534183418 -0.07917622332233
 6  9.68615613191319 -0.98881769646965  1.11634600340034
 6  11.03234556455646  0.54291914611461  0.05274011241124
 6  12.37309257975798  0.00744205140514  0.24934324552455
 6  13.47921946454646  1.03315058975898  0.38383128152815
 6  14.81406774197420  0.20954423252325  0.44172883498350
 6  15.01885687378738 -0.37647992849285  1.77002692669267
 6  15.99757938633864  1.19985488748875  0.08469167446745
 6  17.49923940204020  0.54335956035604 -0.10050692459246
 6  18.63019256665667  1.47696488768877 -0.14034418121812
 6  19.94115631673167  0.95798429322932 -0.21030111381138
 6  19.98841864316432  0.35724115441544 -1.68163395459546
 6  21.11800896979698  1.94180559855986  0.03275817991799
 1 -3.36841748004800  3.70824207520752  0.87438684038404
 1 -9.72271625412541  4.07806689178918 -0.19538317221722
 1 -10.02901539313931 -2.55505590489049 -0.63320614651465
 1 -2.35518803560356 -1.00593821162116  1.76406645494550
 1 -1.81758109670967  1.82288276447645  0.45211166456646
 1 -1.17994937863786  1.30801911631163  3.04451516261626
 1 -2.42121029492949  2.44307288368837  2.87736385418542
 1 -2.65507784028403  1.04327221252125  3.31683755285529
 1 -1.84709372967297 -1.24701597459746 -0.96974476127613
 1 -1.25417058605861 -0.03272474537454 -1.02428221902190
 1  0.21292929122912 -0.79175060836084  1.20547641284128
 1 -0.47938165796580 -2.32054838863886  0.43720395249525
 1 -4.07658218861886  5.72797062496250  0.32478743644364
 1 -5.68021830243024  6.93846652255225  0.59769667576758
 1 -4.98518954715472  6.15841480248025  1.86690446274627
 1 -9.40935394949495  5.84796990619062  0.02847647184719
 1 -12.21627118071807 -1.79461032853285 -0.33714814201420
 1 -12.80794700970097  0.00826722652265 -0.65336297269727
 1 -13.27959578267827 -1.28712082748275 -2.66851396849685
 1 -12.33199016281628 -0.27240981948195 -3.14599676917692
 1 -11.69297612201220 -1.62555587258726 -3.06312291969197
 1 -9.15102428572857 -4.44502105770577 -1.41130335833583
 1 -8.02389760436044 -5.69716972957296 -0.64001365326533
 1 -9.08655593559356 -5.24962692389239  0.49838444794479
 1 -2.92335191659166 -3.35335906080608 -0.33474178097810
 1  3.24133574897490 -3.23325059885989 -1.18814453155315
 1  2.81441573037304 -2.26392230723072 -2.20178041334133
 1  4.14303163086309 -0.99436218461846  0.34328793039304
 1  4.41718477547755 -0.97774124662466 -3.61125124012401
 1  6.32524610301030 -1.22672134753475 -3.59979120302030
 1  5.25878970637064 -2.48131074537454 -2.95629981378138
 1  6.81506192809281  0.72501783918392 -1.79509212641264
 1  5.78738384778478  0.91493704150415 -0.47842210561056
 1  7.36414759365937 -0.83495169226923  0.20833255485549
 1  7.78346374477448 -1.63521231153115 -1.32958243414342
 1  8.87729986138614  1.38148874367437 -1.23544632993299
 1  8.17366586468647  1.20673586178618  0.27803351175118
 1  9.96939938703870 -0.77971541524152 -0.82068922652265
 1  8.40953319761976 -1.29242805850585  1.02734109490949
 1  10.14587065646565 -1.71826570777078  1.14230612201220
 1  9.88890210181018 -0.35408663106311  1.60847215231523
 1  11.34590822862286  1.19222198209821 -0.67203437503750
 1  10.89461920852085  1.35885476107611  0.83349723002300
 1  12.40007754995499 -0.74071651115111  1.19729341264126
 1  12.59569172317232 -1.01734995559556 -0.49398239573957
 1  13.51752662266227  1.87953749874987 -0.51284018861886
 1  13.30436248104810  1.74210846214622  1.29930571997200
 1  14.72593401920192 -0.62845036103610 -0.37815600680068
 1  15.30303020292029  0.44414480998100  2.74650742374237
 1  14.50489776327633 -1.18859653155316  2.42100959905991
 1  16.23952098519852 -0.67862144524452  1.62307878557856
 1  15.77987912281228  1.50707070047005 -0.96634660936094
 1  16.32071610421042  1.69348888438844  0.74995331853185
 1  17.46219753485348  0.00018318891889  0.48767895459546
 1  17.38260578477848  0.02647081628163 -0.86584796219622
 1  18.41135614271427  1.94429097689769 -1.17979096739674
 1  18.78674867096710  2.43293720062006  0.44909157965797
 1  19.89734229542955  0.06072891909191  0.53743709450945
 1  20.16006432443244  1.42181723132313 -2.66823894909491
 1  21.07242153215321 -0.17939974177418 -1.68133226662666
 1  19.19670239723973 -0.16278399679968 -1.86623469816982
 1  20.84404118271827  2.14998457755776  1.01292204580458
 1  22.06608434873488  1.38673525622562  0.17101438643864
 1  21.27368402130213  2.55429291649165 -0.66162095839584
 1  0.11898627352735 -3.77310005940594  2.35712406040604
 1 -1.41344102510251 -5.12708998269827  3.11769240584058
 1 -1.12130614391439 -3.31447992509251  3.59812396559656
 8 -12.02103047734773  3.68908370757076 -0.77921973567357
 1 -12.91356186768677  1.92390363046305 -1.28310891589159

