%nproc=4
%Mem=2GB
# td=(NStates=1) iop(3/107=0140000000,3/108=0140000000) iop(3/107=0140000000,3/108=0140000000) CAM-B3LYP/6-31G(d,p) 

TD

0 1
12 -6.80835340744074  0.61791093519352  0.11555917541754
 6 -4.50319742624262 -1.92307072887289  0.40054033103310
 6 -4.17586940234023  2.89462109520952  0.85115799739974
 6 -9.04674737943794  3.17229125322532 -0.06588609030903
 6 -9.28834693229323 -1.70170319991999 -0.67195725442544
 7 -4.73869894179418  0.54777417511751  0.56584561666167
 6 -3.88547581318132 -0.70583028982898  0.53398395379538
 6 -2.49519293789379 -0.47518927812781  0.99735179747975
 6 -2.42652261806181  1.11077122592259  1.14544670717072
 6 -3.89157542044204  1.56108619381938  0.85124989968997
 6 -1.95430171587159  1.31219301520152  2.69005356815682
 6 -1.57454620302030 -0.97297986138614 -0.13350202390239
 6 -0.11405952425243 -1.28648035463546  0.31551062456246
 6  0.82900397959796 -1.25807304420442 -0.88516669046905
 8  0.63245331343134 -0.88078069056906 -2.04615560576058
 8  1.94829511611161 -2.01560185878588 -0.57165208770877
 7 -6.61188293049305  2.64411478147815  0.25057880578058
 6 -5.43877443834383  3.30877952115212  0.57539383558356
 6 -5.88583279847985  4.71371105590559  0.78503337193719
 6 -7.22562327572757  4.89209530003000  0.42425900920092
 6 -7.66505820972097  3.46191499989999  0.08742357375738
 6 -4.90155507580758  5.74861229172917  1.13960162816282
 6 -8.03871543284328  6.15762268236824  0.17724724842484
 8 -7.61223513971397  7.21525314191419  0.23181103790379
 7 -8.80184373787379  0.65544640384038 -0.40435308440844
 6 -9.55767944034404  1.82981771707171 -0.45971702400240
 6 -10.94789141944194  1.48015788688869 -0.76427220842084
 6 -11.06827118461846  0.11440234463446 -0.74259511501150
 6 -9.70534219751975 -0.35832399559956 -0.70125220192019
 6 -12.09855663096310  2.46332252535254 -0.85461011181118
 6 -12.15665878637864 -0.81341490379038 -1.16918505220522
 6 -11.93195005710571 -1.06328849404941 -2.58833162786279
 7 -6.95678216111611 -1.36507906920692  0.05206256175618
 6 -8.03232589418942 -2.24937493419342 -0.51630482848285
 6 -7.58745633073307 -3.67736505890589 -0.42858386848685
 6 -6.22956857805781 -3.65371453235324 -0.01617987858786
 6 -5.95994228292829 -2.18347716221622  0.09008519281928
 6 -8.44450297379738 -4.77791516931693 -0.74106692259226
 6 -5.02390859535954 -4.43795959405941  0.14505253095310
 8 -4.64481623032303 -5.50590112841284 -0.13454294769477
 6 -3.84412813821382 -3.31636219541954  0.51731637883788
 6 -3.53412692359236 -3.62414859035904  2.01118083108311
 8 -4.07058229832983 -4.12037877267727  2.98816748654865
 8 -2.13232490739074 -3.42581888718872  1.92388232743274
 6 -1.26999552165217 -3.76835192529253  2.94326875207521
 6  3.02905479827983 -2.26258143504350 -1.52686393049305
 6  4.13873764116412 -1.33935093619362 -0.94113964626463
 6  5.22663341874187 -1.21887875927593 -1.95844204580458
 6  5.36049003280328 -1.80145328002800 -3.31981896409641
 6  6.19155297989799 -0.15275292819282 -1.56147270577058
 6  7.56959565356536 -0.71591737383738 -1.23100983828383
 6  8.59583214351435  0.27646328092809 -0.78906738723872
 6  9.77995108450845 -0.19055597589759 -0.06122442814281
 6  9.38700621692169 -0.92040085478548  1.35109947874787
 6  10.92121445144515  0.75338019221922  0.38058289668967
 6  12.33349862036204  0.07249855705571  0.43890220142014
 6  13.38989053165317  1.10169744444444  0.53651655005501
 6  14.82354869006901  0.36953023112311  0.69021368346835
 6  14.94906989508951 -0.08690097059706  2.02242216621662
 6  15.83433306170617  1.67674257625763  0.32729593489349
 6  17.09490896899690  0.91993721812181  0.11320444654465
 6  18.34722426982698  1.70905809700970 -0.23071321812181
 6  19.81676387748775  0.87975647044705 -0.36771685538554
 6  19.91327112841284 -0.00457502720272 -1.67976376757676
 6  21.19301647054706  1.79171058905891 -0.42796789268927
 1 -3.46863750205020  3.58038928992899  1.55746514821482
 1 -9.80495447794780  3.74675376047605 -0.23840747464747
 1 -10.06836932853285 -2.60333073237324 -0.84757758365837
 1 -2.21134365116512 -1.04542216001600  1.88440848914891
 1 -1.65530486908691  1.52125260146015  0.35483193659366
 1 -0.36715809950995  1.39600791519152  2.67023773487349
 1 -2.77401557545755  2.61334991139114  2.88684480228023
 1 -2.27729006150615  0.35285317061706  2.89373524262426
 1 -1.86894591489149 -2.05918719171917 -0.51240902770277
 1 -1.48934410341034 -0.37070854375438 -1.08949874067407
 1  0.24992299059906 -0.52035346864687  1.14639050425042
 1  0.05777205740574 -2.08252458625862  1.01246147824783
 1 -3.80809533993399  5.70434826272627  0.65239019671967
 1 -5.46840712131213  6.74693736963696  0.81152805890589
 1 -4.36478750695070  5.76827578857886  2.32542031433143
 1 -8.96430944504450  6.07814292349235  0.27250087428743
 1 -12.10765031863186 -1.59639050655065 -0.66908133533353
 1 -13.07695391039104 -0.38112171237124 -1.05469310571057
 1 -12.77106492959296 -1.88557067246725 -2.81272838993899
 1 -11.78269523332333 -0.26926950545054 -3.39111128062806
 1 -10.86690351475148 -1.78790210721072 -2.49413602100210
 1 -9.03079226252625 -4.49113566916692 -1.82581480948095
 1 -7.41671688628863 -5.98196820942094 -0.71008065996600
 1 -9.47820510051005 -5.28296025722572 -0.01114650515052
 1 -2.96517609900990 -3.71194491939194  0.04292598579858
 1  3.38393000840084 -3.28026530033003 -1.80509622672267
 1  2.75237952675268 -1.94739065406541 -2.75548578387839
 1  3.99981730943094 -0.90998374677468  0.10411401300130
 1  4.81299435643564 -1.08256172867287 -3.80491060606061
 1  6.62478605700570 -2.05753442884288 -3.45806703060306
 1  4.89371319871987 -2.82854546884688 -3.12127631143114
 1  6.05312573447345  0.17537287468747 -2.60404302150215
 1  5.89075418481848  0.78632418021802 -0.47787205060506
 1  7.48648982788279 -1.36584478157816 -0.48469674807481
 1  7.77097249564956 -1.39286807710771 -1.81182065796580
 1  8.85013714511451  0.92668326312631 -1.77843062836284
 1  8.01388988708871  1.06301148934893 -0.02868716031603
 1  10.24195664276428 -0.75625306900690 -0.65704286188619
 1  8.47308955325533 -1.37878669436944  0.84543290409041
 1  10.14541061046105 -1.72915679687969  1.47262915431543
 1  9.19252246384639 -0.09254047644765  2.14035534063406
 1  10.99472311011101  1.22240500040004 -0.39009618121812
 1  10.67193694029403  1.04986386198620  1.27089096939694
 1  12.18253579577958 -0.81003344284428  1.04331801510151
 1  12.04724687868787 -0.26465468606861 -0.50342333983398
 1  13.19925479547955  1.93201274627463 -0.46748565316532
 1  13.17718976377638  1.92559681098110  1.42717850725072
 1  14.72048347414741 -0.43023053905390 -0.04311250245024
 1  14.73892379227923  0.45790618611861  2.84403717671767
 1  14.15953322682268 -0.90418809070907  1.97217471557156
 1  15.88305533863386 -0.52892647574757  2.53114959265927
 1  15.55482661756175  2.19792978637864 -0.61518149284928
 1  15.88898293089309  2.21347088258826  1.57008533173317
 1  17.11158247334733 -0.09911674107411  0.56485667236724
 1  17.08675619981998  0.13389155835584 -0.99216059345935
 1  18.31670667776778  2.14670121792179 -1.32240522882288
 1  18.52901289738974  2.67607151405141  0.53495016551655
 1  19.62049461066107  0.30700354655466  0.89002235303530
 1  19.83644196219622  0.46352140174017 -2.53821594679468
 1  20.63969825982598 -0.85883768556856 -1.70408454185418
 1  19.16156888388839 -0.60081780018002 -1.98071614631463
 1  21.44333111171117  2.52031161026103  0.37457821142114
 1  22.01513925422542  0.73760034273427 -0.48607132213221
 1  21.04551120402040  2.68942642984298 -1.11280607690769
 1  0.00730510541054 -3.42978572797280  2.57858620662066
 1 -1.33587326832683 -4.96348362206221  3.15655629222922
 1 -1.57285129842984 -3.23516199329933  3.87535168836884
 8 -12.02632100640064  3.61033583278328 -0.85296711041104
 1 -13.32646315781578  2.14303554365437 -0.63713431843184

