%nproc=4
%Mem=2GB
# td=(NStates=1) iop(3/107=0140000000,3/108=0140000000) iop(3/107=0140000000,3/108=0140000000) CAM-B3LYP/6-31G(d,p) 

TD

0 1
12 -6.66030860296030  0.60200934503450 -0.07139952045205
 6 -4.52342944944494 -2.13454187598760  0.36196647364736
 6 -4.07501931733173  2.72951458455846  0.98519140074007
 6 -8.76982968766877  3.29214323842384 -0.13524302600260
 6 -9.31159925752575 -1.57339036863686 -0.94056411511151
 7 -4.56452152405241  0.24522392009201  0.45282431453145
 6 -3.94926219181918 -1.02423213001300  0.81703225862586
 6 -2.56195961456146 -0.76231799099910  1.22714477677768
 6 -2.41181114691469  0.70589073787379  1.39514167666767
 6 -3.75721198409841  1.32011209640964  0.92829760446045
 6 -2.11987827352735  1.27828962486249  2.84763932673267
 6 -1.52922167056706 -1.17464002740274  0.01351267756776
 6 -0.17375549384939 -1.20753245984598  0.56571564506451
 6  0.94076515571557 -1.30679791669167 -0.52221039483948
 8  0.88361842994299 -1.00040265276528 -1.58251924212421
 8  1.80097038363836 -2.17137743634363 -0.14668959145915
 7 -6.40423216541654  2.57060743074307  0.23156690459046
 6 -5.18940950185018  3.25402404560456  0.59704600080008
 6 -5.70716493169317  4.67332701750175  0.78359322792279
 6 -6.95618633203320  4.85363145364536  0.46190277357736
 6 -7.56738844274428  3.49379818821882  0.17639247064706
 6 -4.59421434173417  5.68442587308731  1.33997166516652
 6 -7.74811637293729  6.14616153625362  0.46219574327433
 8 -6.98376229242924  7.17681929852985  0.65842369916992
 7 -8.86804035753575  0.75380623982398 -0.49627227632763
 6 -9.29147281968197  2.02827756305631 -0.54422547484748
 6 -10.56014264456446  1.76748661976198 -1.15796157735774
 6 -10.91146550405040  0.40459136353635 -1.23410426592659
 6 -9.58615027832783 -0.38247641084108 -0.90630270697070
 6 -11.65625240054005  2.86943313641364 -1.38302295309531
 6 -12.08607172767277 -0.44853841614161 -1.48128626232623
 6 -12.22082894499450 -0.70006217141714 -2.93536633133313
 7 -6.85303178607861 -1.39187174847485 -0.31807445194519
 6 -8.18917157875788 -2.19474947164716 -0.63359655765577
 6 -7.68612619771977 -3.55518284068407 -0.42541355145514
 6 -6.35128074927493 -3.76438559945995 -0.09854811541154
 6 -5.89772606130613 -2.30439925442544  0.01330751505151
 6 -8.79955847934793 -4.84907228502850 -0.68670148604860
 6 -5.22395860036004 -4.51497729582958  0.28856688238824
 8 -5.13309505820582 -5.80215075337534  0.09312981958196
 6 -4.02987671307131 -3.54402496169617  0.64767941514151
 6 -3.66114962586259 -3.83417959345935  2.01672138513851
 8 -4.34320956105611 -4.05590232503250  3.09773844364436
 8 -2.29046072097210 -3.98336464176418  2.15559549874988
 6 -1.63583210531053 -4.17174226432643  3.40654507970797
 6  2.86690858365837 -2.41560673757376 -1.17838908300830
 6  3.94206797419742 -1.54514151525153 -0.92621815411541
 6  5.01220197559756 -1.24808167956796 -1.71828803040304
 6  5.19003298709871 -1.86330946564656 -3.03686066826683
 6  6.05182900750075 -0.17003465636564 -1.55368192669267
 6  7.37172586658666 -0.70673645574557 -1.00509724702470
 6  8.29188174847485  0.28394402900290 -0.45848432893289
 6  9.75957904730473 -0.32249917021702 -0.07733603930393
 6  9.53819133543354 -1.06742555725573  1.27425179397940
 6  10.83371570157016  0.80381523572357  0.12836767516752
 6  12.29105437593759  0.26655796299630  0.15327363856386
 6  13.27160870347035  1.22548982368237  0.31208410681068
 6  14.62613894909491  0.59451272937294  0.32374703680368
 6  14.79806479457946 -0.23978625912591  1.69897982198220
 6  15.71995162356236  1.50098500050005 -0.19118591329133
 6  17.21432091019102  0.82323754815482 -0.04192106600660
 6  18.20388993639364  1.91764895609561 -0.40697084388439
 6  19.68505070617062  1.45803429822982 -0.53751383508351
 6  19.88142794409441  0.72257768806881 -1.87551334253425
 6  20.91041821072107  2.61003242124212 -0.35214030993099
 1 -3.50474111241124  3.54581583258326  1.30794019571957
 1 -9.44364834733473  4.14530361546155 -0.49158279217922
 1 -9.80544303590359 -2.27170757005701 -1.45523834973497
 1 -2.44955747254726 -1.05124274207421  1.97587763606361
 1 -1.63057239583958  0.99658013421342  0.78614506790679
 1 -1.54043542724272  0.53408172257226  3.26521723282328
 1 -1.88774694859486  2.35343391979198  2.91991810961096
 1 -2.95241757425743  1.09783766906691  3.59642551165117
 1 -1.78582760306031 -2.07784905790579 -0.34955274207421
 1 -1.53740890989099 -0.28172964586459 -0.79385917671767
 1 -0.20010201190119 -0.22207364066407  1.00695656085609
 1  0.02276855705571 -1.79494582838284  1.28259849194919
 1 -3.62813734413441  5.88685651355136  0.58846380408041
 1 -5.13228350895089  6.87224990089009  1.32847975407541
 1 -4.01499252745275  5.38175713671367  2.28661643394340
 1 -8.84189720382038  6.02258736793679  0.55468909310931
 1 -12.09690924452445 -1.65783665116512 -0.68175260246025
 1 -13.05826204120412 -0.04550815101510 -1.36667430383038
 1 -13.18858668176818 -1.01893400880088 -3.23131024812481
 1 -11.60150711451145  0.10078750025003 -3.84179634913491
 1 -11.61618844324432 -1.67313063006301 -3.14856146354635
 1 -8.33824300760076 -5.19161571717172 -2.11590381838184
 1 -8.49497471207121 -6.16567658025803  0.30159050715071
 1 -9.86915419541954 -4.61375333653365 -0.34994038453845
 1 -3.13835341674167 -3.91835556045605  0.11451314451445
 1  3.26954857025703 -3.44852212601260 -1.33160887798780
 1  2.57810209900990 -2.49483539853985 -2.14065430073007
 1  4.11579890759076 -1.03789653805381  0.06749035063506
 1  4.38987204420442 -1.76114958745875 -3.94970508550855
 1  6.26199977837784 -1.71278995439544 -3.74969619351935
 1  5.29586341374137 -2.96100871517152 -3.04217840164016
 1  6.14694511641164  0.65200053745375 -2.12436505370537
 1  5.44746985638564  0.58487403520352 -0.83174743814381
 1  7.08016919581958 -1.50740893799380 -0.26588486688669
 1  7.64204960336034 -1.14113290359036 -1.88039751565157
 1  8.74833696509651  1.09696029082908 -0.98425121042104
 1  7.91399989808981  0.61355654385439  0.44093980238024
 1  9.91564401150115 -1.18362580628063 -0.54171132873287
 1  8.97117936223622 -1.88409722542254  1.20180854165417
 1  10.38556462586259 -1.53798767996800  1.59204109550955
 1  9.05962917451745 -0.45509673207321  2.11229253435344
 1  10.72770640844084  1.66599935983598 -0.93567073867387
 1  10.68012775937594  1.52308118371837  0.87552143244324
 1  12.16629417161716 -0.87927036653665  0.65026871017102
 1  12.44938709270927 -0.25711393199320 -0.68370136763676
 1  13.54270914091409  2.06975652065207 -0.27902680728073
 1  13.10020206500650  2.02326657795780  1.10398618801880
 1  14.83525495129513 -0.12266978297830 -0.48041623282328
 1  15.13539343924393  0.91410180568057  2.56184895789579
 1  14.15932320582058 -0.92808047994799  2.01931943004301
 1  15.71649868296830 -0.87563114621462  1.79115559325933
 1  15.71601273617362  2.04821481488149 -1.22529250395040
 1  15.75548958155816  2.61386092159216  0.69775809900990
 1  17.60515183028303  0.12292546314631  1.20800098679868
 1  17.31077860206020  0.29067723692369 -1.00832220962096
 1  18.15483049014902  2.89141568936894 -1.04416740504050
 1  18.35434543064306  2.61867577447745  0.48495516601660
 1  20.00017257845785  0.78590143634363  0.24480783158316
 1  19.45511382938294  1.58040308990899 -3.02484460966097
 1  20.91181547154715  0.95535373357336 -1.89424355775578
 1  19.31570429742974 -0.04091180958096 -2.39860793549355
 1  20.73709048764876  2.92535211431143  0.74266502010201
 1  22.15625336563657  2.31744832753275 -0.55054776977698
 1  20.73047970087008  3.45343283048305 -1.27954275057506
 1 -0.15104072917292 -4.05573832323232  3.35118346634664
 1 -1.88675835683568 -5.33554082778278  3.32906354295429
 1 -2.09204321762176 -3.43564204130413  4.22275642884288
 8 -11.32610098439844  4.03071787098710 -1.10706251995200
 1 -12.57878839033904  2.34101534163416 -1.75263586858686

