%nproc=4
%Mem=2GB
# td=(NStates=1) iop(3/107=0140000000,3/108=0140000000) iop(3/107=0140000000,3/108=0140000000) CAM-B3LYP/6-31G(d,p) 

TD

0 1
12 -6.71598417051705  0.58763790789079  0.04947256675668
 6 -4.70178728522852 -2.03477189898990  0.48868914591459
 6 -4.08353016841684  2.78100973407341  0.89199208080808
 6 -8.85042774747475  3.26064008810881 -0.29595909760976
 6 -9.38000609820982 -1.63207623722372 -0.59542960166017
 7 -4.61614668656866  0.40217961566157  0.59536856895690
 6 -3.99227649324933 -0.82070177697770  0.61521207660766
 6 -2.61237465606561 -0.53003476267627  1.03280534283428
 6 -2.52874284008401  0.95027517631763  1.19060122262226
 6 -3.83483974687469  1.45516560176018  0.87236201090109
 6 -1.94689097479748  1.25197699359936  2.50755531833183
 6 -1.65637438583858 -1.02978554195420 -0.18500717441744
 6 -0.02819093739374 -1.13746545314531  0.32180125362536
 6  0.76954803400340 -1.51028826572657 -0.84977315111511
 8  0.54882495059506 -1.26797941044104 -2.01145213541354
 8  1.91734202080208 -2.16685698429843 -0.34794971747175
 7 -6.55524726692669  2.55971634163416  0.19896364426443
 6 -5.37203776467647  3.34079272247225  0.70002629882988
 6 -5.65205942114211  4.76930661546155  0.51680654925493
 6 -6.96619733313331  4.94076016651665  0.34206078937894
 6 -7.54574627852785  3.48960776917692  0.09914474587459
 6 -4.62296721702170  5.80484791529153  0.94209187718772
 6 -7.67496905820582  6.02324924502450  0.42050157385739
 8 -7.07185110131013  7.25416703330333  0.34579243604360
 7 -8.73174672817282  0.67021788098810 -0.37071972107211
 6 -9.44943861626163  1.92620735603560 -0.37239829212921
 6 -10.83527015731573  1.54318418951895 -0.82023780498050
 6 -11.02733709120912  0.28838974337434 -0.96898775427543
 6 -9.63564522782278 -0.22323048624862 -0.66133821052105
 6 -11.87865464076408  2.76660285338534 -0.88866351715172
 6 -12.14195731623162 -0.48715227752775 -1.29216735043504
 6 -12.27279414151415 -0.70901306650665 -2.78799159385939
 7 -6.96299278217822 -1.35273783508351  0.02797015251525
 6 -8.22260492209221 -2.19647964466447 -0.48353155115512
 6 -7.74801238633863 -3.53591091349135 -0.47517852795280
 6 -6.37590321152115 -3.55745490639064 -0.25135339593959
 6 -6.03433972267227 -2.27316613111311  0.12401858615862
 6 -8.64634315781578 -4.74291166896690 -0.81731454735474
 6 -5.10248645314531 -4.48971476957696  0.16415444114411
 8 -4.81462321102110 -5.49070960926093 -0.19159865326533
 6 -3.99780350575057 -3.34501506070607  0.55954060126013
 6 -3.41394490539054 -3.76345252075207  1.90732044504451
 8 -3.92612785288529 -3.95189192399240  2.94916358615862
 8 -2.09933160806081 -3.72921922722272  1.95585552475248
 6 -1.56848537063706 -3.92527761786179  3.27423184838484
 6  2.93430532333233 -2.44097927482748 -1.31110235433543
 6  4.12780654805481 -1.52823982508251 -1.01943747604761
 6  5.12408316371637 -1.33492036343634 -1.69077527912791
 6  5.64964894869487 -2.00621375607561 -2.85628261046105
 6  6.24844866946695 -0.41337899079908 -1.37548410691069
 6  7.50789948394839 -1.16357213931393 -0.98305504280428
 6  8.58214077437744  0.02957859245925 -0.69606808730873
 6  9.72269535893589 -0.48234515481548  0.01042273657366
 6  9.61639915621562 -1.26213502820282  1.37752212101210
 6  10.81749407940794  0.64314916911691 -0.00573573517352
 6  12.32513778427843  0.10688199539954  0.52935124632463
 6  13.26251779437944  1.13958123282328  0.50986388478848
 6  14.68538487368737  0.52783606170617  0.65311997409741
 6  14.98077306540654 -0.13657593809381  1.92359228322832
 6  15.82322195059506  1.47913281528153  0.21967517281728
 6  17.23923340144014  0.79257448184818  0.13287641374137
 6  18.27935748314832  1.76897408860886 -0.38174832163216
 6  19.69290149124912  1.54480297509751 -0.49022910661066
 6  19.70462026332633  0.94716014631463 -1.87309310051005
 6  20.51723889278928  2.72944436243624 -0.45077017291729
 1 -3.10101073937394  3.07261851285129  1.07447684938494
 1 -9.72344632713271  3.99135822092209 -0.08558219211921
 1 -10.40980347194719 -2.50865126442644 -0.57388021392139
 1 -2.38798131493149 -1.37170478827883  1.95611565986599
 1 -1.90087942654265  1.06396687288729  0.61861831523152
 1 -0.92659404310431  1.02083039743974  2.76940765186519
 1 -2.00253842774277  2.34650322672267  2.81993811161116
 1 -2.74585691819182  0.79757764306431  3.21667753685369
 1 -2.08376739703970 -2.34872614561456 -0.33247103390339
 1 -1.71334650365037 -0.32072354525453 -0.92264205500550
 1  0.43855185348535 -0.10744217751775  0.49868573377338
 1  0.01085736593659 -1.91845817961796  1.43857408950895
 1 -3.75265979637964  6.03307113501350  0.13347830553055
 1 -4.91517179777978  6.98559123502350  0.95233213931393
 1 -4.12853388158816  5.51040000100010  1.96736450875087
 1 -9.18023103720372  5.91210631983198  0.70201382558256
 1 -12.08114766836684 -1.55389625712571 -0.91273570077008
 1 -13.14616083108311 -0.09797339753975 -0.98836647304730
 1 -13.33112093519352 -1.28641075647565 -3.08451556865687
 1 -12.53406036983698  0.34103152465247 -3.48870103960396
 1 -11.59392621702170 -1.46803012001200 -2.92694930233023
 1 -9.32116129942994 -4.65185174077408 -1.70976320432043
 1 -8.13364857945795 -5.68549856245625 -0.93601325322532
 1 -9.32447972797280 -4.99563152435243  0.07774238373837
 1 -3.10627020842084 -3.54614833973397  0.15325701890189
 1  3.20147176257626 -3.56620389418942 -1.27782349944995
 1  2.48673296209621 -2.61000691569157 -2.20916115141514
 1  3.81612894059406 -0.64890763916392 -0.34425082348235
 1  4.82059511651165 -2.22637611011101 -3.79450956595660
 1  6.31102468086809 -1.73648232363236 -3.31449267316732
 1  5.96626045344534 -3.08057067136714 -2.16769095289529
 1  6.31547196909691  0.17725306270627 -2.32364498169817
 1  5.57108221762176  0.47021256905691 -0.66842110551055
 1  7.33872505140514 -1.60220841794179 -0.23142142054205
 1  8.13361876027603 -1.40504929522952 -1.81411088698870
 1  8.70791292269227  0.47341793659366 -1.60098288358836
 1  8.01710020812081  0.81721690989099 -0.08088237983798
 1  10.38105055215522 -1.38056550025002 -0.34961211881188
 1  9.10357260156016 -2.10841965766577  1.27559592039204
 1  10.65189125852585 -1.58225210641064  1.45307719911991
 1  9.33059627122712 -0.56378760116012  2.43741504660466
 1  10.61907554535454  0.99502226212621 -0.92953012461246
 1  10.46930667726773  1.45612448804880  0.86965084538454
 1  12.19685722792279 -0.24038647814782  1.63355703900390
 1  12.45912806680668 -0.91739996059606 -0.30505350285029
 1  13.42798766876688  1.65940548554855 -0.40052895749575
 1  13.10940298509851  2.01562581388139  1.38509429882988
 1  14.75470689648965 -0.28350586658666 -0.13234142534253
 1  15.29604950485048  0.76118651415142  2.94654742774277
 1  14.38150542404240 -0.75659333123312  2.09950744884488
 1  15.61715874897490 -0.62306588968897  1.72328880658066
 1  15.26395753065306  2.17263725712571 -0.69936991169117
 1  15.79866389898990  1.90677021252125  1.03645196839684
 1  17.50783209830983  0.05612878347835  1.11402158885889
 1  17.10939846404640 -0.13820565136514 -0.66263764116412
 1  18.19178418551855  2.06903345114512 -1.30519350765077
 1  18.28078807490749  2.82985689258926  0.38248491899190
 1  19.84521708290829  0.85992883908391  0.25952930373037
 1  18.92423074107410  1.10664571417142 -2.64787691289129
 1  20.43502779277928  0.93734193239324 -2.03745787918792
 1  19.40155288228823 -0.18294601300130 -1.98576665136514
 1  20.46035281388139  3.20281986108611  0.43764451805181
 1  21.48377611791179  2.61338792149215 -0.45944865986599
 1  20.35529218211821  3.29247673487349 -1.32224702100210
 1 -0.81840746584658 -4.63274602400240  2.85989433743374
 1 -2.58044772577258 -4.24082135583558  4.30640127672767
 1 -0.87985199849985 -2.91664014111411  3.68462261546155
 8 -11.55504387868787  3.86396119531953 -0.75867768146815
 1 -12.99897040854085  2.67916915701570 -1.17562816781678

