%nproc=4
%Mem=2GB
# td=(NStates=1) iop(3/107=0140000000,3/108=0140000000) iop(3/107=0140000000,3/108=0140000000) CAM-B3LYP/6-31G(d,p) 

TD

0 1
12 -6.79785235733573  0.68036718081808  0.16474409390939
 6 -4.58912601910191 -2.03988241004100  0.59599987698770
 6 -4.20866268166817  2.83354498759876  1.04998788038804
 6 -8.96424912961296  3.16837086118612 -0.32513201490149
 6 -9.17346544414442 -1.74897792739274 -0.81118117681768
 7 -4.76926199809981  0.39639903760376  0.71318035013501
 6 -4.03137040264026 -0.80521022782278  0.79035959135914
 6 -2.54329774837484 -0.48073983318332  1.23490555285529
 6 -2.70812077787779  0.97062721152115  1.57680984348435
 6 -3.93112937583758  1.54887497269727  1.03353812851285
 6 -2.61768805450545  1.17318911481148  2.94884944774477
 6 -1.47267601600160 -0.77568013141314 -0.04067274097410
 6 -0.08847696599660 -0.90654236083608  0.55672474597460
 6  0.80366144534453 -1.25035227212721 -0.62218039183918
 8  0.76715678377838 -0.71917452995300 -1.71372236243624
 8  1.83723401000100 -2.23868416701670 -0.23616853935394
 7 -6.62359410161016  2.53726409640964  0.23282703060306
 6 -5.60315087598760  3.28321696489649  0.57883417961796
 6 -5.87083129832983  4.82560224502450  0.58828369696970
 6 -7.27026774017402  4.90649674017402  0.46140272357236
 6 -7.75616732063206  3.43812262066207  0.23857868926893
 6 -4.98842376267627  5.89870730123012  1.03014068206821
 6 -8.10425198649865  6.08648556865687  0.25882540624062
 8 -7.31086500270027  7.15778739533953  0.22850070687069
 7 -8.73229678317832  0.66595745494549 -0.37424007310731
 6 -9.47584125652565  1.76113084838484 -0.62426347864786
 6 -10.80928755905590  1.52594246534653 -0.97718349954995
 6 -10.90819517701770  0.25997690209021 -1.08090894639464
 6 -9.51887355065507 -0.28294645784578 -0.83366544324432
 6 -11.89175595089509  2.44458065116512 -1.23347799859986
 6 -12.14114723522352 -0.56508007030703 -1.54061219491949
 6 -11.93205006710671 -0.86738890409041 -2.99370216491649
 7 -6.98542502540254 -1.40974353565357 -0.11557420192019
 6 -8.08211087268727 -2.20761075777578 -0.45326852485249
 6 -7.66433401850185 -3.69159648204820 -0.46344735483548
 6 -6.27355297649765 -3.57620678157816 -0.09157741834183
 6 -5.94807109580958 -2.16248506300630  0.06509269356936
 6 -8.38869739323932 -4.90327770557056 -1.02970578647865
 6 -5.00786699119912 -4.38038383648365  0.09795782148215
 8 -4.89572132083208 -5.51701223952395 -0.09830932433243
 6 -3.90409413481348 -3.48516907610761  0.47105175237524
 6 -3.39085259615962 -3.72617879337934  1.92773248624862
 8 -3.95387062716272 -3.67709444424442  3.02464113391339
 8 -2.13261493639364 -3.81421772707271  1.80994093329333
 6 -1.29121764386439 -4.00779586968697  3.09136356155616
 6  2.92436432923292 -2.27685286218622 -1.19527077117712
 6  3.95916968436844 -1.34139114021402 -0.82786831913191
 6  5.06446720212021 -0.89313618501850 -1.49726592819282
 6  5.18716270007001 -1.36365950065006 -2.97374435663566
 6  6.18380220482048 -0.03915156805681 -1.12541910041004
 6  7.41712040604060 -0.75024080618062 -0.56409314661466
 6  8.59015157545755  0.18857449204921 -0.18728720922092
 6  9.94030712011201 -0.64160108040804  0.20204189848985
 6  9.83326084238424 -1.50979979467947  1.62309667846785
 6  11.02504483448345  0.46692154635464  0.27831266966697
 6  12.36461173167317 -0.09596828962896  0.10360867206721
 6  13.43335487808781  0.99845712041204  0.27468036643664
 6  14.81224755995600  0.17859113721372  0.29205386748675
 6  15.10722571067107 -0.67364964546455  1.58190811481148
 6  15.80142977137714  1.33547844984498  0.06974017931793
 6  17.24193367146714  0.71459668406841 -0.33308018191819
 6  18.38204775217522  1.80251744294429 -0.49390953775378
 6  19.80081228232823  1.25977447224722 -0.63555363906391
 6  20.13107290859086  0.61340677097710 -2.04807059825983
 6  20.77248441734174  2.58736015401540 -0.50280537643764
 1 -3.62193283158316  3.69232048304830  1.36748615031503
 1 -9.62303628612861  3.85700478557856 -0.65193882778278
 1 -10.20763325492549 -2.17158755805580 -1.02969579547955
 1 -2.32779529632963 -0.97381499929993  2.15920596889689
 1 -1.90397973657366  1.65426590279028  1.03622007540754
 1 -1.57446883058306  1.14727304170417  3.31168187928793
 1 -3.39067724162416  2.43141171757176  3.50681679947995
 1 -3.32116444894489  0.38140602590259  3.49177504660466
 1 -2.01143016331633 -1.73605487848785 -0.50275806260626
 1 -1.54383955295530 -0.03836530943094 -0.79807959875988
 1  0.20307830613061  0.09466803350335  1.02403826902690
 1 -0.27564128392839 -1.74918125192519  1.32836306840684
 1 -4.21698622902290  6.33081090899090  0.18559351705170
 1 -5.54474475507551  6.73003567946795  1.27697460356036
 1 -4.48338936713671  5.59343830483048  1.71367914021402
 1 -9.15244825892589  5.93609871907191  0.15934955915591
 1 -12.05396495009501 -1.52282314981498 -0.88168259545955
 1 -12.97002321732173  0.02232863266327 -1.23662129852985
 1 -12.41203902700270 -1.22544465986599 -3.65472258935894
 1 -11.76884384818482  0.13151057255726 -3.40097226672667
 1 -10.98234505890589 -1.35258857585759 -3.27247385478548
 1 -8.28071725502550 -4.63574012961296 -2.00059228722872
 1 -7.64587980258026 -5.89070908350835 -0.84093374527453
 1 -9.40333761376138 -5.52721468266827 -0.67506289678968
 1 -2.85413499489949 -3.56259998489849 -0.09777808460846
 1  3.35413702910291 -3.13613088688869 -1.27375309240924
 1  2.69691398019802 -2.07178309330933 -2.39594983028303
 1  3.51847917561756 -0.80486323472347  0.13022662426243
 1  4.43038609560956 -1.29448292079208 -3.79562967796780
 1  6.29086266466647 -1.10209888528853 -3.49629085298530
 1  5.22123595099510 -2.59000161446145 -2.89117330113011
 1  6.23299372127213  0.58531386878688 -1.71161377857786
 1  5.69763487288729  0.67054260206021 -0.13567783118312
 1  7.23760493939394 -1.21221941904190  0.29260098169817
 1  7.97566296469647 -1.32027081738174 -1.46182565846585
 1  8.79098122952295  0.89726032083208 -1.10437322262226
 1  8.14546304440444  0.96006119431943  0.79788549694969
 1  10.13319576667667 -1.45386282998300 -0.75129228682868
 1  9.11331357565757 -2.10254907060706  1.21436979777978
 1  11.24088015741574 -1.99610349154916  2.25549744114411
 1  9.24379759135914 -0.93606482888289  2.61818312341234
 1  11.01058469626963  0.93926668656866 -0.65402257385739
 1  11.24734448104810  1.14707358295830  1.28832271257126
 1  12.29830737293729 -0.97892033153315  0.97845152845285
 1  12.72641479547955 -0.77643586418642 -0.92770576807681
 1  13.33774864486449  1.56517606260626 -0.49251815641564
 1  13.44048609340934  1.90625487678768  1.23932972237224
 1  14.56054748054805 -0.65377289328933 -0.69049724092409
 1  14.88126802670267  0.23281367686769  2.25952872587259
 1  14.20269754325432 -1.33650132203220  2.13380087818782
 1  15.95773280638064 -0.95431901500150  1.19423590129013
 1  15.46120725562556  2.16218621202120 -0.85988596329633
 1  16.07457148974898  1.98679821532153  1.11883020622062
 1  17.52514382948295 -0.02287911731173  0.44948513521352
 1  17.25416294049405  0.24491266046605 -1.41967334473447
 1  18.25248025512552  2.49126567436744 -1.41923491179118
 1  18.17246724282428  2.67204111101110  0.40054672517252
 1  20.05126768796880  0.53750659685969  0.05323867466747
 1  20.02303062106211  1.15788083768377 -2.70485261046105
 1  21.29379366936694  0.42621081928193 -2.36523065646565
 1  19.71132385938594 -0.31385910431043 -2.40088816351635
 1  20.89932671127113  3.26135571467147  0.55323607720772
 1  21.84878261856186  2.37160374307431 -0.64607732273227
 1  20.54042069496949  3.15136262346235 -1.17855265156516
 1 -0.41370699579958 -4.37519026842684  2.88833718171817
 1 -1.71281096209621 -4.55145241894189  3.77484812141214
 1 -1.34206822012201 -3.16710518761876  3.80077423062306
 8 -11.71084945924592  3.64550935013501 -1.18274008770877
 1 -12.80292080358036  1.96878811891189 -1.86193679867987

