%nproc=4
%Mem=2GB
# td=(NStates=1) iop(3/107=0140000000,3/108=0140000000) iop(3/107=0140000000,3/108=0140000000) CAM-B3LYP/6-31G(d,p) 

TD

0 1
12 -6.72679525162516  0.63809295339534  0.13385100460046
 6 -4.52362946944694 -2.21950037183718  0.37911818881888
 6 -4.03172498789879  2.54343597669767  1.12213509510951
 6 -8.80995370007001  3.20933495759576 -0.26985648734873
 6 -9.19808790639064 -1.62201523112311 -0.64114417311731
 7 -4.78873394529453  0.23941333903390  0.61108014011401
 6 -4.09623688928893 -1.04156386318632  0.66885744114411
 6 -2.60780419901990 -0.70689244844484  1.01089315161516
 6 -2.42249221502150  0.76744689348935  1.24119628212821
 6 -3.79650591349135  1.27611769696970  0.96318109280928
 6 -2.05025131083108  1.21374317021702  2.71611617441744
 6 -1.68924767316732 -1.20488305170517 -0.14388306200620
 6 -0.31835995429543 -1.33000470707071  0.51387046054605
 6  0.74216529572957 -1.39758699559956 -0.69665783958396
 8  0.58999906800680 -0.99311192369237 -1.90930192039204
 8  1.80420070667067 -2.08117841644164 -0.30059498199820
 7 -6.50413215541554  2.51422179217922  0.32493624152415
 6 -5.34311487238724  3.20165880908091  0.57659395559556
 6 -5.64500871607161  4.82504218901890  0.84073894249425
 6 -6.89724043744374  4.98172426292629  0.36866344964496
 6 -7.42319402330233  3.56680548894890 -0.04529969856986
 6 -4.48374329462946  5.74272170267027  1.02121978997900
 6 -7.77122868416842  6.23059998009801  0.28217774147415
 8 -7.36043996019602  7.32965458205821  0.61076893369337
 7 -8.64361791529153  0.75569642884288 -0.37911056015602
 6 -9.35884955735574  1.97849258455846 -0.49104015631563
 6 -10.65801243154315  1.70467033813381 -0.80216599779978
 6 -10.85968032553255  0.38226913131313 -0.91732258775878
 6 -9.68137980128013 -0.23416157935794 -0.62585466216622
 6 -11.71451822712271  2.83445963906391 -0.90737538833883
 6 -12.08096121662166 -0.45233879617962 -1.27234536823682
 6 -12.07177403950395 -0.70344250945095 -2.93749654435444
 7 -6.88468495139514 -1.40815337663766 -0.05676832133213
 6 -8.02527518911891 -2.06687668436844 -0.50614381238124
 6 -7.69437702280228 -3.51499882228223 -0.55849685978598
 6 -6.34999062026203 -3.60039920082008 -0.30586884748475
 6 -5.91228751745174 -2.20514932943294 -0.02723653935394
 6 -8.62483100660066 -4.71395877367737 -0.63135595149515
 6 -5.21481768626863 -4.64198999709971  0.01525955165517
 8 -5.08432018071807 -5.86032657095710 -0.05492498589859
 6 -4.08388211361136 -3.61685224442444  0.45023967116712
 6 -3.57166067696770 -3.81324750025003  1.82639235223522
 8 -4.04056929702970 -3.92059879467947  2.93646231603160
 8 -2.30312198709871 -3.79320562586259  1.69227916711671
 6 -1.28644716681668 -4.47861295139514  2.79201362656266
 6  2.93422531533153 -2.48313349024902 -1.11842308640864
 6  3.88971273867387 -1.52579958105811 -0.90361589388939
 6  5.13218397379738 -1.51444831623162 -1.66828302990299
 6  5.36647063086309 -2.24134726942694 -3.01345832803280
 6  5.98146197079708 -0.26034368726873 -1.29713627212721
 6  7.30189888388839 -0.74878066016602 -0.63830056735674
 6  8.42209476977698  0.01465710031003 -0.56885536603660
 6  9.63491658105811 -0.29989690999100 -0.08118642434243
 6  9.48274579087909 -0.72510132483248  1.46568093689369
 6  10.79590192019202  0.70222507670767 -0.02963812541254
 6  12.20034530503050  0.09608091529153  0.07075538673867
 6  13.17810935353535  1.37477475217522  0.07970086848685
 6  14.67775411061106  0.65315859395940  0.46795145724572
 6  14.97770275837584  0.47099481898190  2.29943986798680
 6  15.77543717211721  1.66117101910191 -0.22826962166217
 6  17.19850932903290  1.05221044544454 -0.05095196909691
 6  18.14660420782078  2.00685787698770 -0.46264641144114
 6  19.62478467956796  1.29396789158916 -0.38268835253525
 6  20.09500930223022  0.31932736303630 -1.64601039223922
 6  21.00925809470947  2.40715213321332 -0.45051014691469
 1 -3.07068770707071  3.41414266526653  1.51770117181718
 1 -9.43790777327733  3.93729281438144 -0.24289792369237
 1 -9.93033552515251 -2.40051045034503 -1.02430525642564
 1 -2.35561807860786 -1.26042366016602  2.01660170847085
 1 -1.64153349194919  1.17610808700870  0.47715416881688
 1 -1.19371075477548  0.46032434683468  3.28542925402540
 1 -1.92302047594760  2.09557813421342  2.70902702050205
 1 -2.89517184968497  0.79957784308431  3.53146901600160
 1 -2.02523154345435 -1.99579085208521 -0.81493928072807
 1 -1.58780394939494 -0.31322279517952 -1.00550034083408
 1 -0.03119512121212 -0.43153458675868  1.02762862806281
 1 -0.04428814861486 -2.18217455125513  1.38795902800280
 1 -3.78494302470247  5.48650647854786  0.45751070877088
 1 -5.08248852945295  6.74273694959496  0.74077098319832
 1 -4.43530455865587  5.96908586958696  2.19423719601960
 1 -8.75568858295830  6.01020612981298  0.01741536573657
 1 -12.32034158775878 -1.41526239373937 -0.73644807200720
 1 -12.86892310731073  0.20406680648065 -1.09756739313931
 1 -13.02031985508551 -1.16932904830483 -3.22151926902690
 1 -11.88573553735374  0.16868428992899 -3.41310347984799
 1 -11.58689551395140 -1.21236455345535 -3.06715332273227
 1 -8.98236742004200 -5.02441899749975 -1.65692792079208
 1 -7.99806502110211 -5.70207021962196 -0.16640629252925
 1 -9.52331961196120 -4.24453641484148  0.14051866136614
 1 -3.49025860726073 -3.71268499339934 -0.37527583438344
 1  3.35543715911591 -3.50405767956796 -0.67522323942394
 1  2.82249653845385 -2.92463837883788 -2.16732696799680
 1  3.45857318501850 -0.81194394279428 -0.12850924932493
 1  4.68097115411541 -2.30682415491549 -3.76765688068807
 1  6.36631020942094 -1.88927760316032 -3.30328155205521
 1  5.54312814021402 -3.35209782408241 -2.63617780158016
 1  6.08854927682768  0.50555589298930 -2.11322393959396
 1  5.10061517091709  0.46302184998500 -0.36164042744274
 1  6.90739191809181 -1.67265546264627  0.27479920152015
 1  8.11042644104410 -1.61664045434543 -1.38506798269827
 1  8.55634776617662  0.68983957875788 -1.14339712501250
 1  8.04211270937094  0.75642083028303  0.18955466386639
 1  10.02340478757876 -1.07690513421342 -0.54314147174717
 1  8.87417966226623 -1.63286210191019  1.39143750455046
 1  10.48626469586959 -1.04870875207521  1.84328622002200
 1  9.23534674627463 -0.06715793819382  2.11948325342534
 1  10.70384402220222  1.33023578347835 -1.00586775837584
 1  10.62803254985498  1.57906678227823  0.78425230553055
 1  12.35633317551755 -0.45084752425243  0.94146783008301
 1  12.33315546954695 -0.38329655025503 -0.78609160666067
 1  13.29775464546455  1.69253879887989 -0.90829973457346
 1  12.65310735553555  1.83285753705371  0.91864765416542
 1  15.07704913071307 -0.43492100810081 -0.10328852005200
 1  15.16671657155716  1.64622501800180  2.97104987798780
 1  13.89437671117112 -0.04215188708871  2.89042654075408
 1  16.05963299639964 -0.30530411351135  2.33957043474348
 1  15.85906704160416  1.98974896829683 -1.52760273497350
 1  15.52009604220422  3.06978651415142  0.17207553075307
 1  17.55805712081208  0.53871704230423  0.78134832153215
 1  17.05672319651965  0.23310147934793 -0.64102547994800
 1  18.01025603270327  2.60247679547955 -1.33016600490049
 1  18.10422041814181  2.75781968886889  0.28081475197520
 1  19.77946050725073  0.77004985118512  0.71035438623862
 1  20.01391970997100  0.99758480808081 -2.44603672887289
 1  21.44815910591059  0.00816901510151 -1.65859999339934
 1  19.33040576757676 -0.58477619601960 -1.73627170187019
 1  20.82383916251625  3.51848142724273  0.30890164376438
 1  22.19020676097610  1.73294987768777 -0.02901561656166
 1  21.28521517441744  2.94362184938494 -1.81883667996800
 1 -0.53484911001100 -4.85772852225222  2.39457780578058
 1 -1.54801448244824 -5.64051132483248  3.69992062866287
 1 -0.93265727902790 -3.71344982208221  3.41661581478148
 8 -11.23812218651865  4.07828262746275 -0.89275108880888
 1 -12.69734024552455  2.77885912601260 -1.03696430143014

