%nproc=4
%Mem=4GB
# td=(NStates=1) iop(3/107=0140000000,3/108=0140000000) iop(3/107=0140000000,3/108=0140000000) CAM-B3LYP/6-31G(d,p) 

TD

0 1
12 -5.72005351195119  1.23030790509051  0.17550615581558
 6 -5.00097048424843 -2.09507797109711 -0.33140000680068
 6 -3.41610039913991  1.25861614641464  2.79978535183518
 6 -6.24818361406141  4.50820408460846  0.73568377717772
 6 -8.14198996609661  1.12029287998800 -2.31483915741574
 7 -4.41084533783378 -0.20494868666867  1.13234457325733
 6 -4.29000252775278 -1.55373907550755  0.67068941854185
 6 -3.17634075857586 -2.27824112691269  1.48623298699870
 6 -2.88444161516152 -1.24351724262426  2.56051260736074
 6 -3.63501092849285  0.00313768606861  2.20132471767177
 6 -3.41606464586459 -1.83981742314231  3.99423212261226
 6 -2.01898709190919 -2.65536294559456  0.62221752725273
 6 -1.06169781328133 -3.62983056365637  1.34339792779278
 6  0.25131023152315 -3.90762460316032  0.68608680338034
 8  0.44563462776278 -3.54292160576058 -0.49760599479948
 8  1.10386723242324 -4.61872148944895  1.41092569986999
 7 -5.00819163546355  2.50067944484448  1.52674290599060
 6 -4.04655674547455  2.44990241194119  2.53540414371437
 6 -3.72938244194419  3.62070057225723  3.19469002520252
 6 -4.52574312701270  4.61168269656966  2.54997426872687
 6 -5.28138424262426  3.95564365956596  1.56785287758776
 6 -2.81826718981898  3.76832420822082  4.40075426482648
 6 -4.58605513611361  6.09822724322432  2.89193869866987
 8 -4.07342739073907  6.55508339633963  3.86270016991699
 7 -6.82011581148115  2.58523841964196 -0.77220887718772
 6 -6.91787450225023  3.98817843504350 -0.39111079977998
 6 -8.01177636403640  4.63748047284728 -1.17054116361636
 6 -8.43362281558156  3.69434636453645 -2.03926287068707
 6 -7.80429932043204  2.36263227202720 -1.78244419091909
 6 -8.30333332423242  5.95537544694469 -1.22770227902790
 6 -9.43567793109311  3.78415881408141 -3.22311694449445
 6 -8.58752020572057  4.15191333753375 -4.52590899489949
 7 -6.38768718771877 -0.11201621932193 -1.12359745174517
 6 -7.40930045964596 -0.09035510411041 -2.13437764846485
 6 -7.50634814201420 -1.31890359395940 -2.80068259085909
 6 -6.65411496029603 -2.12354192599260 -2.05670183588359
 6 -5.91747016241624 -1.34648821392139 -1.16215234563456
 6 -8.51887734553455 -1.68066819281928 -3.79206610281028
 6 -6.06701036813681 -3.48700428432843 -2.02480603570357
 8 -6.31964636013601 -4.54177187558756 -2.71944820992099
 6 -5.00583914601460 -3.57905595819582 -0.87764008380838
 6 -5.32307978537854 -4.61006644774478  0.13874754655466
 8 -5.69771554315431 -4.45065407350735  1.25938230163016
 8 -5.09785948414842 -5.80858205460546 -0.43781692629263
 6 -5.30909847404741 -6.91475332863286  0.37780961076108
 6  2.34019499269927 -5.10661178137814  0.76138009240924
 6  3.40040457545755 -4.10259041994199  1.16502440224022
 6  4.02269165936594 -3.29842271237124  0.31927556255626
 6  3.70077441634163 -3.24794973627363 -1.11951145564556
 6  5.17419384518452 -2.46004105170517  0.66240003880388
 6  6.52659753105311 -2.79411233643364  0.00337180458046
 6  7.71034635823582 -1.83638299379938  0.53461915241524
 6  9.04149497079708 -1.94516935053505 -0.15875365786579
 6  9.52798918061806 -3.46399704010401  0.08619516181618
 6  10.06436701580158 -1.01907214461446  0.38650116561656
 6  11.42814011641164 -0.93230283718372 -0.38013677987799
 6  12.18582627122712  0.31143577107711  0.09730657825783
 6  13.59686214201420  0.43787865776578 -0.59873463666367
 6  14.46935523452345 -0.65035443804380 -0.53420757165717
 6  14.27397333693369  1.76645281688169 -0.16940619541954
 6  15.40904509490949  2.17609563776378 -1.02710770577058
 6  16.02773535793579  3.56207095989599 -0.57222783598360
 6  17.28467371647165  3.92801064266427 -1.32745668086809
 6  17.01001359105911  4.02505739743974 -2.86900912511251
 6  17.83283268936894  5.14324959025903 -0.68110756965697
 1 -2.80321604440444  1.26810108550855  3.66443691209121
 1 -6.27570554935494  5.57503288368837  0.81197018871887
 1 -8.89524993219322  1.12500280318032 -3.01355683448345
 1 -3.67989905470547 -3.10974629002900  1.88979704050405
 1 -1.97398452235224 -0.99970763236324  2.74367564366437
 1 -2.82591237033703 -2.75024818601860  4.14249779377938
 1 -3.30298109080908 -1.20282018641864  4.73641567136714
 1 -4.41103361506151 -2.19300838173817  3.94902885338534
 1 -2.19814512821282 -3.20808032533253 -0.50051067486749
 1 -1.45337316971697 -1.58021713801380  0.53702182378238
 1 -0.98130356385639 -3.31100239583958  2.36981119981998
 1 -1.67217193879388 -4.75079221042104  1.50763256125613
 1 -1.83624373817382  3.57063658805881  3.94584049374937
 1 -2.99097008710871  4.87988519451945  4.74357061476148
 1 -3.05296829182918  3.14069506700670  5.20590559655966
 1 -5.13774683858386  6.60695488988899  2.10817613901390
 1 -10.03334246774677  2.89584024112411 -3.31267451915192
 1 -10.12693349124913  4.61813565766577 -2.98900919161916
 1 -9.51130092989299  4.04048246224623 -5.25538074037404
 1 -8.26281579097910  5.11075082048205 -4.48743869886989
 1 -7.83166301530153  3.32092145094509 -4.91891181598160
 1 -8.25974356395639 -1.13750429332933 -4.68921992029203
 1 -8.53252423542354 -2.58079148424843 -4.10444308130813
 1 -9.55616569606961 -1.40616744014401 -3.41003791049105
 1 -4.00822818021802 -3.61559638623862 -1.39380266716672
 1  2.36780791379138 -6.02857080008001  1.21842779967997
 1  2.01425216861686 -5.33278025412541 -0.20647409700970
 1  3.70802292459246 -3.86541582338234  2.19147415501550
 1  2.81625661236124 -3.67101272237224 -1.42470501150115
 1  3.56784139743974 -2.06611017031703 -1.40211268176818
 1  4.36323849784978 -3.74846857605761 -1.80955988188819
 1  4.79131917281728 -1.47010343434343  0.34694657815782
 1  5.21690021732173 -2.45163679607961  1.83429831013101
 1  6.85088261496150 -3.97406059815982  0.18947683168317
 1  6.51020118051805 -2.60266787578758 -1.06607720322032
 1  7.18604753605361 -1.00094341944194  0.69972721822182
 1  7.79468157105711 -2.20421700480048  1.55210959625963
 1  8.69670377967797 -1.82464073927393 -1.38748208630863
 1  8.80512503120312 -4.15685445684568 -0.10375416781678
 1  10.31748108890889 -3.55223942604260 -0.42800291379138
 1  9.74927398879888 -3.58762985448545  1.15477592029203
 1  9.67621677227723  0.03723945014501  0.33864922872287
 1  10.10603070057006 -1.12854938883888  1.48080762076208
 1  11.84417955925593 -1.84186421832183 -0.23475784898490
 1  11.36737282398240 -0.79159206410641 -1.44792612621262
 1  11.74604563806381  1.29317374657466 -0.24802435763576
 1  12.27931275457546  0.16642783418342  1.16693497369737
 1  13.37042384308431  0.51293572587259 -1.71817405610561
 1  14.52653199149915 -1.01717993069307  0.66481216121612
 1  14.09454502550255 -1.67891690799080 -1.36397271877188
 1  15.65122611101110 -0.43329652785279 -0.90622751525152
 1  13.51317951215121  2.65434005310531 -0.11117290499050
 1  14.74716141644164  1.56819710891089  0.88511572547255
 1  16.18291994779478  1.47120573327333 -1.23723021372137
 1  15.24967055045505  2.27258117091709 -2.13844522422242
 1  15.28658006260626  4.30144552255225 -0.70720271837184
 1  16.24762753285329  3.50240688208821  0.42746264666467
 1  18.09286296769677  3.17298879007901 -1.19284836443644
 1  16.38707942834283  4.92822935183518 -3.06505886568657
 1  17.98438436193619  4.12952246554655 -3.48899350445044
 1  16.63642384258426  3.11532260226023 -3.36572460706071
 1  18.05138118531853  5.12068328582858  0.35555721992199
 1  18.88658618091809  5.49094324652465 -0.86379329372937
 1  17.18775032593259  5.99703920702070 -0.73551761306131
 1 -4.92701800320032 -7.90553998709871 -0.11191472917292
 1 -6.22865729602960 -6.96532361896190  0.70906441394139
 1 -4.52139030763076 -6.73853542914291  1.29999445604560
 8 -7.77527511911191  6.85411191199120 -0.47322510651065
 1 -9.09352764986499  6.42972861776178 -1.91694737753775

