%nproc=4
%Mem=2GB
# td=(NStates=1) iop(3/107=0140000000,3/108=0140000000) iop(3/107=0140000000,3/108=0140000000) CAM-B3LYP/6-31G(d,p) 

TD

0 1
12 -6.57340991309131  0.64117326142614  0.06857447694769
 6 -4.57742484898490 -2.13199162096210  0.53427370437044
 6 -3.90174198959896  2.67259889298930  0.98573145474547
 6 -8.65757846254626  3.25614963906391 -0.39150865256526
 6 -9.34570266786679 -1.69806283588359 -0.68285834453445
 7 -4.70392546444644  0.35794519221922  0.56128516061606
 6 -3.90870813641364 -0.87069677647765  0.60190074547455
 6 -2.43567698629863 -0.74701646084608  0.90885294759476
 6 -2.26563652945295  0.80643079187919  1.12774493699370
 6 -3.59079534243424  1.33036312151215  0.74068884358436
 6 -2.12161844754475  1.29445124102410  2.56958152095210
 6 -1.59793854225423 -1.28813137653765 -0.22763143684368
 6 -0.07809592789279 -1.71246295289529  0.36523559705971
 6  1.00277135633563 -1.68593583048305 -0.72365053885389
 8  1.02562263036304 -1.02035464796480 -1.70862185238524
 8  1.88573886048605 -2.75881618021802 -0.27070199269927
 7 -6.44739648184818  2.66552692269227  0.26340008790879
 6 -5.24890545144514  3.30632927612761  0.62013831003100
 6 -5.40555477067707  4.74446413121312  0.65797066566657
 6 -6.71753246664666  4.98594468496850  0.17235381868187
 6 -7.37887959185919  3.61834064246425 -0.02396756535654
 6 -4.40550547084708  5.85223265376538  0.94608227622762
 6 -7.65410697199720  6.25649256935694  0.16120564426443
 8 -7.26603051925193  7.30203181978198  0.45417327412741
 7 -8.59098265176518  0.93260411961196 -0.43046569566957
 6 -9.26943061546155  1.98798353365337 -0.52897394969497
 6 -10.74502113241324  1.82728259935994 -0.86659244044405
 6 -10.96615097259726  0.38380928532853 -0.98576943244324
 6 -9.50102176547655 -0.20617878107811 -0.73208528522852
 6 -11.81035781108111  2.80260645374537 -0.99260391119112
 6 -12.20295341584158 -0.52752631493149 -1.14085221892189
 6 -12.62255911801180 -0.62747491269127 -2.70309310401040
 7 -6.91180766366637 -1.40093265456546 -0.11963460796080
 6 -8.12612527412741 -2.26381637833783 -0.34433763176318
 6 -7.72763034813481 -3.65809313171317 -0.42203321342134
 6 -6.49225484668467 -3.56473563446345  0.11411315071507
 6 -5.83263955265527 -2.27699651415142  0.16141232553255
 6 -8.72815133863386 -4.90486786458646 -0.54378719461946
 6 -5.24176038053805 -4.42223802190219  0.18601662736274
 8 -4.97925967466747 -5.64531506980698 -0.05414490789079
 6 -3.98124184958496 -3.47619817901790  0.53414806200620
 6 -3.31872538343834 -3.75744191969197  1.90223993699370
 8 -4.08825406550655 -3.91071780658066  2.84249291909191
 8 -2.07703937883788 -3.76377268256826  1.78830877007701
 6 -1.44644316641664 -4.09111420152015  2.95642006720672
 6  3.04641653445345 -2.87210238713871 -1.28665991009101
 6  4.03063683108311 -1.72833983508351 -0.83162869516952
 6  4.93764451985199 -1.14816168756876 -1.68613481508151
 6  5.07252123592359 -1.61996513121312 -3.12119910211021
 6  5.91887571217122 -0.14433208610861 -1.01494805330533
 6  7.22590128412841 -0.90013579567957 -0.75863260056006
 6  8.25662822312231  0.16736237083708 -0.44989346984698
 6  9.61331442084209 -0.57248416871687 -0.08695700140014
 6  9.50070758705871 -1.25306412111211  1.35361973077308
 6  10.75597792779278  0.63852870707071  0.07052189058906
 6  12.13328859935994  0.11295260246025  0.15960427162716
 6  13.17502904550455  1.13899117381738  0.12997589598960
 6  14.57511384658466  0.52310558865887  0.57625228732873
 6  14.84716970507051 -0.01416369686969  1.97870779477948
 6  15.62038166656666  1.63823872587259  0.09603280858086
 6  17.09440891899190  1.07768299269927  0.08136126222622
 6  18.24261380878088  2.07672486368637 -0.28653880068007
 6  19.60051225232523  1.43782227702770 -0.41750183388339
 6  19.65578537983798  0.96723215351535 -1.85425121632163
 6  20.59397656655666  2.58454987298730 -0.29639473537354
 1 -3.09399003730373  3.32337358835884  1.08775817751775
 1 -9.25222920542054  4.04092317741774 -0.63659729362936
 1 -9.99221171277128 -2.24142454175417 -1.12377520342034
 1 -2.17909042584258 -1.28575619341934  1.75815586388639
 1 -1.42391172977298  1.09443992019202  0.49735618901890
 1 -1.32823420712071  0.69498781318132  2.78072878397840
 1 -2.34364253815382  2.43324190059006  2.68580469826983
 1 -2.85738807130713  0.78889677497750  2.89849571867187
 1 -1.97706672697270 -2.43705497849785 -0.54671245804580
 1 -1.64085925492549 -0.41153262616262 -0.96099589038904
 1  0.22079007730773 -0.97409884318432  1.09859572477248
 1  0.19706598679868 -2.54462079587959  0.94592482458246
 1 -3.52909744014401  5.54584241214121  0.29326428412841
 1 -4.59922020262026  7.05795847174717  0.88795570167017
 1 -4.10344137233723  5.88189715071507  1.87794556685669
 1 -8.53550656475648  6.08590369956996 -0.43840021582158
 1 -12.37898745234524 -1.60153102060206 -0.70186461366137
 1 -13.24488070307031  0.04273067286729 -0.73194083048305
 1 -13.88339616271627 -1.22937505290529 -2.87213433053305
 1 -12.63642060586059  0.55098251975198 -3.46242841234123
 1 -11.99832665706571 -0.97482079907991 -3.34701130853085
 1 -9.67785696899690 -4.60710726632663 -1.31701392939294
 1 -8.17640285488549 -5.74639465206521 -0.87153680558056
 1 -9.37240452045205 -5.34125608680868  0.69265387488749
 1 -3.06478606000600 -3.73246697159716 -0.16718502530253
 1  3.69110072547255 -3.67902517631763 -0.89629534663466
 1  2.60078436723672 -2.70644655965597 -2.09713994929493
 1  3.78834616231623 -1.40106285468547  0.38823242484248
 1  4.31012406940694 -1.53158663116312 -3.61896201120112
 1  6.23278685708571 -1.51531020642064 -3.54004522842284
 1  5.21673550095009 -2.63382599689969 -3.15433961776178
 1  5.98092851475148  0.65325066246625 -1.75527814501450
 1  5.41841695109511  0.18807435523552 -0.35800006340634
 1  7.18149932883288 -1.39101729882988  0.31418313991399
 1  7.80856625502550 -1.88215700600060 -1.46300577647765
 1  8.67121925332533  0.67532812761276 -1.50953373867387
 1  8.03125162326233  0.83149833803380  0.35445115351535
 1  9.74089653675368 -1.44257170087009 -0.74259141674167
 1  8.37725997029703 -1.72864167986799  1.22032039283928
 1  10.18175424482448 -2.17765164636464  1.65868776017602
 1  9.34936814841484 -0.42727394979498  2.20306161126113
 1  10.50164380218022  1.39158191809181 -0.81057822942294
 1  10.52119186578658  1.16474535013501  1.06598047834784
 1  12.30179772197220 -0.70519295879588  0.82514619791979
 1  12.24332648664866 -0.47901612221222 -0.50515351285128
 1  13.47518238823882  1.78337788278828 -0.65854475907591
 1  12.76995904070407  1.92901715301530  0.90417620702070
 1  14.93505493129313 -0.51583909990999 -0.01332952415242
 1  15.56678657855786  1.31706210171017  2.72407518051805
 1  13.83855112861286 -0.42456012791279  2.70209770787079
 1  15.46176320942094 -0.93094667776778  1.87759423712371
 1  15.31492262716272  2.15769576297630 -0.72770274497450
 1  15.79505353795379  2.56011554705471  0.81591991519152
 1  17.46951826692669  0.63340651125113  1.12925311201120
 1  17.11400892509251  0.04924309350935 -0.57260863826383
 1  17.75771077817782  2.71827837563756 -1.03128611691169
 1  18.29236923302330  2.60864477137714  0.38422509300930
 1  19.98854141534154  0.56587943414342  0.51241459225923
 1  19.56167448544855  2.13415846544655 -2.44120624582458
 1  20.81167545754575  0.66759495769577 -2.04304843824382
 1  18.73366609360936  0.36706898849885 -2.02714078877888
 1  20.61508828742874  2.92455203430343  0.67183793739374
 1  21.41045878617862  2.00914749744975 -0.90675339033903
 1  20.18141479437944  3.85119260646065 -0.65272006830683
 1 -0.39834545964597 -4.49334208360836  2.42781112911291
 1 -1.95846552755275 -4.91148842254225  3.01117175377538
 1 -1.42855686898690 -3.41800027712771  3.55600975417542
 8 -11.67468584288429  4.07703250245024 -0.95796761046105
 1 -12.78789930143014  2.40823206330633 -1.16771737673767

