%nproc=4
%Mem=4GB
# td=(NStates=1) iop(3/107=0140000000,3/108=0140000000) iop(3/107=0140000000,3/108=0140000000) CAM-B3LYP/6-31G(d,p) 

TD

0 1
12 -5.61368287488749  1.22604747904790  0.17529613481348
 6 -5.06614700190019 -2.09366783008301 -0.32350921772177
 6 -3.45506429552955  1.20568085288529  2.86902227552755
 6 -6.15100389608961  4.51366463066307  0.68431864066407
 6 -7.90992675977598  1.19267011771177 -2.43162083558356
 7 -4.39076332963296 -0.22629082088209  1.13857519631963
 6 -4.24364789228923 -1.58425212681268  0.76492884248425
 6 -3.27971109560956 -2.40554385718572  1.58729309300930
 6 -2.89507267826783 -1.33310620152015  2.62777933403340
 6 -3.57046447384738 -0.09416204390439  2.21714629982998
 6 -3.27162020142014 -1.84751819321932  4.00885358475848
 6 -2.07486267946795 -2.83852126142614  0.74271957745775
 6 -1.05090673417342 -3.59059664026403  1.46995058305831
 6  0.17718281878188 -3.94282812351235  0.61231942664266
 8  0.49540960526053 -3.41655896949695 -0.48126436063606
 8  1.06158300400040 -4.76657627492749  1.28403301060106
 7 -4.87873869016902  2.63598297519752  1.45774600630063
 6 -3.97104919471947  2.40738816051605  2.47672827612761
 6 -3.80519002270227  3.72017051925192  3.18370892709271
 6 -4.56323687638764  4.68961048934893  2.65656492779278
 6 -5.27977408160816  3.98099619481948  1.55800189248925
 6 -2.75798116121612  3.75068244404440  4.30983517291729
 6 -4.66026255685569  6.10700812131213  3.00855035983598
 8 -3.88860890889089  6.62359024702470  3.82791669156916
 7 -6.91275507540754  2.64672456825683 -0.68374003030303
 6 -6.95408812361236  3.95874549174917 -0.33634532323232
 6 -7.95874106050605  4.55176190099010 -1.21234534403440
 6 -8.37510696399640  3.61083801370137 -2.08187713211321
 6 -7.69932882338234  2.46924293309331 -1.77744369086909
 6 -8.23128611951195  5.98934884428443 -1.20420992979298
 6 -9.38532289558956  3.83170356855686 -3.19345397819782
 6 -8.75613706740674  4.10939908610861 -4.53609001300130
 7 -6.29062748174817 -0.09325434313431 -1.10728582058206
 6 -7.28948847844785 -0.02396846544654 -2.12530674137414
 6 -7.50062756995700 -1.28960066366637 -2.76676919951995
 6 -6.58360790959096 -2.19711928372837 -2.12720888658866
 6 -5.95182359775978 -1.41661522662266 -1.12129826022602
 6 -8.38912437023702 -1.66356648264826 -3.90684758095810
 6 -6.15588925602560 -3.56007159105911 -2.07736129122912
 8 -6.48664305980598 -4.50167786618662 -2.71597786288629
 6 -5.03705226732673 -3.54119217181718 -0.83499581938194
 6 -5.25476295369537 -4.52384782588259  0.17174084588459
 8 -5.74576034763476 -4.50315932403240  1.25227159055906
 8 -5.06922662086209 -5.81572276867687 -0.44367751235124
 6 -5.57092465666567 -6.90859271257126  0.40852268206821
 6  2.28580955415542 -5.08271939213921  0.60063401780178
 6  3.42298683368337 -4.06489665056506  1.04079197899790
 6  4.11130052025203 -3.35577844794479  0.16868050305031
 6  3.86378071697170 -3.20556549784978 -1.35092459695970
 6  5.22200862666267 -2.43992904050405  0.72637643644364
 6  6.57583245454545 -2.87404032923292  0.14634610201020
 6  7.61539686328633 -1.93874322982298  0.62072776327633
 6  8.99275009630963 -2.05692052565257 -0.08314609710971
 6  9.56310269196920 -3.44854549494949  0.10480702300230
 6  9.92152273137314 -0.95425566296630  0.39758227372737
 6  11.28095539793979 -0.91901150805081 -0.29635840204020
 6  12.14712240084008  0.31897652515252  0.11511835943594
 6  13.49810226602660  0.46161103100310 -0.68102286548655
 6  14.49281758075808 -0.60445984858486 -0.32749690059006
 6  14.08656459605961  1.84705087668767 -0.20163941874187
 6  15.41389557995799  2.16410443864386 -0.84092908790879
 6  15.92297488188819  3.58038279107911 -0.71645225842584
 6  17.21591684078408  3.97234507610761 -1.38742267746775
 6  17.25604819451945  4.06055094679468 -2.88474069826983
 6  17.79900930703070  5.20274553985399 -0.86253571247125
 1 -2.69763548634864  1.28058233363336  3.76197666606661
 1 -6.53174115291529  5.57744312471247  0.97442643434343
 1 -8.80155056225623  1.17366766966697 -3.10005548434843
 1 -4.00792185698570 -3.19999531493149  2.03344140494049
 1 -1.77702482638264 -1.20202786438644  2.64837611371137
 1 -2.69355913501350 -2.63183634483448  4.36157970197020
 1 -3.27746853955396 -0.80987089148915  4.51888391819182
 1 -4.39115162686269 -2.02216129702970  4.24222817331733
 1 -2.47383269696970 -3.22910242754275 -0.06170679447945
 1 -1.61398923132313 -1.79724884118412  0.40062818441844
 1 -0.56252168566857 -3.03404470007001  2.35618983768377
 1 -1.53923864546455 -4.52901003220322  2.05857765576558
 1 -1.61661177497750  3.26233575797580  4.13673958365837
 1 -2.63150414051405  4.95529273527353  4.34144040174017
 1 -3.12233522852285  3.33338433593359  5.29641464746475
 1 -5.45205826972697  6.59987418181818  2.56290161156116
 1 -10.13729286278628  2.87909856695670 -3.56703995569557
 1 -10.02428322622262  4.50369421352135 -2.97318760946095
 1 -9.34661446124612  4.66729514351435 -5.41718692099210
 1 -7.88670818021802  4.93701344674467 -4.49802975797580
 1 -8.16274612361236  3.33440279907991 -4.88508843364336
 1 -8.27420501010101 -1.07877842074207 -4.72041303960396
 1 -8.59485046804680 -2.71829523462346 -4.28735137213721
 1 -9.43000307980798 -1.34421124452445 -3.72783969066907
 1 -4.17180453785379 -3.60853568016802 -1.41066435333533
 1  2.70280141314131 -6.00607855085509  0.82194815171517
 1  2.33144388778878 -5.00122709880988 -0.55292874247425
 1  3.38859098139814 -4.06466574837484  2.03441844944494
 1  2.80074506120612 -3.62474809590959 -1.42415495649565
 1  3.85840045334533 -2.10742430173017 -1.63530600110011
 1  4.55969814381438 -3.61381511071107 -2.08485741164116
 1  4.94959500040004 -1.45759218321832  0.44824670817082
 1  5.16180470777078 -2.63048468086809  1.75173005330533
 1  6.80081760846085 -4.00584377647765  0.44362224622462
 1  6.33821398179818 -2.88940654965497 -0.96549714521452
 1  7.14609354065407 -0.95042836793679  0.32801004650465
 1  7.79109121202120 -2.02367895099510  1.68542292759276
 1  8.78655276457646 -1.99004727992799 -1.00638397649765
 1  9.02093661236123 -4.33195196659666 -0.32750654305431
 1  10.57279662046205 -3.43917811991199 -0.19593970747075
 1  9.67810687208721 -3.52962405390539  1.17963840654065
 1  9.40256940754075  0.04631035723572  0.04798016181618
 1  10.00868096559656 -0.96567310121012  1.56648618861886
 1  12.02942808410841 -1.78555858775878 -0.06370074327433
 1  11.16669275597560 -0.80151305620562 -1.44146548014802
 1  11.49598063156316  1.25709013821382 -0.06159571477148
 1  12.62355717901790  0.35036622802280  1.06686496669667
 1  13.15904270497050  0.26727115941594 -1.71753399209921
 1  14.70063940224022 -0.58190640334033  0.84834051405140
 1  14.10948651965196 -1.52758177447745 -0.21570789228923
 1  15.41775276367637 -0.40646384458446 -0.86543343584358
 1  13.45933412761276  2.69901452055205 -0.34812660036004
 1  14.17008370867087  1.72618290749075  1.04520173407341
 1  16.17969962576258  1.30290890359036 -0.62733922462246
 1  15.42142772617262  1.87593150595060 -1.91378275797580
 1  15.11276268086809  4.44582996099610 -1.00400239833983
 1  15.78789155925593  3.69515615701570  0.43083298369837
 1  18.07326100750075  3.06131762296230 -1.20923000260026
 1  16.65845656605660  4.93422995189519 -3.47303966376638
 1  18.24868079157916  4.30851036433643 -3.31632623772377
 1  16.82641284148415  3.09546061606161 -3.45127316191619
 1  17.89412545974597  5.29456067356736  0.26227789198920
 1  18.70628815111511  5.58715286748675 -1.32862977737774
 1  17.06298784968497  6.10828033113311 -1.22059612091209
 1 -5.62240754215422 -7.72889232233223 -0.33576711441144
 1 -6.65885031533153 -6.76314340094009  0.50739424692469
 1 -5.16648481708171 -7.02435401100110  1.30529498609861
 8 -7.97058465006501  6.86424292509251 -0.45564334833483
 1 -8.85748404550455  6.22282792769277 -2.03690937373737

