%nproc=4
%Mem=2GB
# td=(NStates=1) iop(3/107=0140000000,3/108=0140000000) iop(3/107=0140000000,3/108=0140000000) CAM-B3LYP/6-31G(d,p) 

TD

0 1
12 -6.73642621472147  0.68970811491149  0.10789840934093
 6 -4.64457156365637 -2.12748116991699  0.54106438343834
 6 -4.24479629502950  2.76263789688969  0.80947382898290
 6 -8.94087679237924  3.31565558965897 -0.39157865956596
 6 -9.34420251785179 -1.59500252985299 -0.76796685538554
 7 -4.59941501340134  0.30950034773477  0.44211324342434
 6 -4.03844110971097 -0.92055176197620  0.76200675607561
 6 -2.58489190779078 -0.62198395759576  0.99082114441444
 6 -2.46720668646865  0.79693984278428  1.34866702920292
 6 -3.81045730863086  1.24659474467447  0.90835561026103
 6 -2.08629491519152  1.03416521242124  2.73871843464346
 6 -1.50571932033203 -1.15757832123212 -0.05870454415442
 6 -0.11784990329033 -1.31895360196020  0.39633870737074
 6  0.90354143334333 -1.51550878777878 -0.52506067986799
 8  0.85648571667167 -0.84085669816982 -1.62970396059606
 8  1.94495478207821 -2.34056435503550 -0.15221014351435
 7 -6.55214695689569  2.64463483348335  0.21365511341134
 6 -5.47672823372337  3.22437108030803  0.58389468566857
 6 -5.67625184038404  4.70679036383638  0.66755162376238
 6 -6.96186690009001  4.98956504700470  0.27487407070707
 6 -7.63686539043904  3.63944275267527  0.05553038443844
 6 -4.83418833913391  5.79466689718972  1.20377804580458
 6 -7.78890045134513  6.17798471857186  0.37967749144914
 8 -7.36530044624462  7.24589620622062  0.63151100790079
 7 -8.84068762226223  0.71032189138914 -0.33675632473247
 6 -9.54471814421442  1.91199593489349 -0.50854190649065
 6 -10.66229285958596  1.65551542264226 -1.07786356755676
 6 -10.99710406790679  0.28621952635264 -1.04457531303130
 6 -9.71859352265226 -0.28412657585759 -0.70513258995900
 6 -11.85813258855885  2.62521871497150 -0.91723637443744
 6 -11.99098221872187 -0.45369893219322 -1.53610174387439
 6 -12.10090695279528 -0.95372753795380 -2.99248204290429
 7 -6.96392287518752 -1.22686524782478 -0.07667031153115
 6 -8.11198385998600 -2.10010000670067 -0.50011320932093
 6 -7.70579816491649 -3.53002032443244 -0.48161917201720
 6 -6.36560218141814 -3.60400956185619 -0.18848710931093
 6 -5.98527481618162 -2.28297711221122  0.09124530883088
 6 -8.75562408590859 -4.44015139293929 -0.80318313421342
 6 -5.22448865336534 -4.46101189928993  0.04601262696270
 8 -4.93958570727073 -5.61562210051005 -0.04680417381738
 6 -3.97004072947295 -3.45985654485449  0.46770141734173
 6 -3.44066757765777 -3.74784095959596  1.80849056205621
 8 -3.81621686178618 -4.02515925072507  2.83753242304230
 8 -2.19569124402440 -3.81583788908891  1.69168910811081
 6 -1.29526804890489 -3.96734182428243  2.92757718291829
 6  3.08344023682368 -2.70433561046105 -1.00321156525652
 6  4.14445821322132 -1.56633363446345 -0.73928946124612
 6  5.23006376177618 -1.27949482088209 -1.48090429202920
 6  5.15727971177118 -1.78975210991099 -2.75187216941694
 6  6.18094191879188 -0.29288694159416 -1.22512907140714
 6  7.45376407040704 -0.70299608170817 -0.70289702700270
 6  8.58352091239124  0.25884151875188 -0.23607208770877
 6  9.74574766416642 -0.38350527082708  0.08938063236324
 6  9.68509602590259 -1.12806162086209  1.29347371617162
 6  10.99760209020902  0.71737659185919  0.12536737513751
 6  12.37504277477748  0.06741804900490 -0.02255394419442
 6  13.50752229482948  1.06517379207921  0.18235113351335
 6  14.80331666686669  0.53783706180618  0.43203786588659
 6  14.94114910301030  0.17548526802680  1.93719364336434
 6  15.87206683508351  1.47615251725172  0.14920812611261
 6  17.18991846994700  0.84461968636864 -0.03959083298330
 6  18.26968651605161  1.93636082728273 -0.30984113091309
 6  19.69526172727273  1.39473796859686 -0.53421350505050
 6  19.58407820912091  0.20170560086009 -1.69309510071007
 6  20.65826299519952  2.63494491249125 -0.98374347024703
 1 -3.38073871217122  3.66922817381738  1.26604600630063
 1 -9.67932191469147  4.21136022112211 -0.79721335523552
 1 -10.11718421002100 -2.17621802110211 -1.31012383828383
 1 -2.45217773457346 -1.22578019581958  1.95478552685269
 1 -1.68929826842684  1.22914339053905  0.41133758715872
 1 -1.15550693439344  0.66062437683768  3.15534624572457
 1 -2.60167834173417  1.86326490289029  2.93708982678268
 1 -2.88160049254925  0.39507739303930  3.39272514161416
 1 -1.82072109240924 -1.85200647364736 -1.05147293409341
 1 -1.19765493449345 -0.48258973187319 -0.99731952275227
 1 -0.01343334503450 -0.38433986728673  1.03873973917392
 1 -0.15458917871787 -2.38940527432743  1.04637486958696
 1 -4.28834336473647  5.42312013991399  0.31079603730373
 1 -5.26932721332133  6.73739641554155  1.27976488258826
 1 -4.52728375657566  5.66839580058006  2.09824759705971
 1 -8.45830884498450  6.21038614781478  0.05188881308131
 1 -12.24406395999600 -1.60208107560756 -0.75349977717772
 1 -12.88444465946595 -0.08515211541154 -1.25220285668567
 1 -12.83765158825883 -1.66895901130113 -3.33610072717272
 1 -12.51417838163816  0.39124654615461 -3.49513168266827
 1 -10.93968079247925 -1.00509382638264 -3.51507811521152
 1 -9.30034921822182 -4.55437199279928 -1.66100832883288
 1 -8.38370358495850 -5.44509452205221 -0.82833248514851
 1 -9.49498677867787 -4.26546850805081  0.12528713821382
 1 -3.07146672807281 -3.68247197209721 -0.26212451925192
 1  3.50350196559656 -3.51553882768277 -0.58823454055406
 1  2.69333362216222 -2.85415133013301 -2.04137437273727
 1  3.79932726042604 -1.11178392679268  0.25620922252225
 1  4.81288434543454 -1.17915138763876 -3.47706782178218
 1  6.27014059245925 -1.77781645704570 -2.90746197009701
 1  4.69315314271427 -2.63377599189919 -2.74631881568157
 1  6.12144256615662  0.24642998039804 -1.92446506370637
 1  5.81123623302330  0.31732728052805 -0.54475873927393
 1  7.23772495139514 -1.43102129922992 -0.07440571897190
 1  7.56960235863586 -1.19887867816782 -1.54685416131613
 1  8.95133726512651  0.69380997579758 -1.12913569886989
 1  8.20003850195019  0.72084727292729  0.25900160856086
 1  10.07327977507751 -1.25983342704270 -0.58205536313631
 1  9.39261150545054 -2.34819363506351  0.94054241504150
 1  10.68952502190219 -0.97067094829483  1.67717960936094
 1  8.79147235883588 -0.61637285968597  2.21172247734774
 1  10.94385802360236  1.54104686458646 -0.40729790139014
 1  11.06334608120812  0.97153602920292  1.23185706600660
 1  12.69562710491049 -0.67900033953395  0.74354803810381
 1  12.34185633963396 -0.60501872247225 -0.86678967646765
 1  13.10199506950695  1.65013455845585 -0.63591249584958
 1  13.15774781958196  1.69520377167717  1.00492628202820
 1  14.70641206700670 -0.28770628662866 -0.34710290149015
 1  15.16095599549955  1.35662605810581  2.69647242024203
 1  14.20385765926593 -0.76575424732473  2.40350784888489
 1  15.74287132023202 -0.44244782788279  2.00416689438944
 1  15.36033716861686  1.65264525792579 -0.94455443014301
 1  15.88241227382738  2.07652718821882  0.85242356555656
 1  17.77624893999400  0.33423659425943  0.69532971967197
 1  16.87892541674167  0.27114528372837 -0.66010738813881
 1  18.02398740584059  2.52765931373137 -1.06227921622162
 1  18.67308730483049  2.62640654755476  0.40065673617362
 1  20.13377593879388  1.04265711191119  0.49899325012501
 1  18.78281659965996  0.42476752635264 -2.44741686688669
 1  20.54849913991399  0.38218641684168 -1.75711984538454
 1  19.00499322632263 -0.77156487488749 -1.20054812951295
 1  20.92400917951795  3.31454103320332 -0.20954020042004
 1  21.67791553185319  2.35900248294829 -1.35538825382538
 1  19.91647830073007  3.09254674187419 -1.90278507480748
 1 -0.25636126122612 -3.93048579797980  2.57708605660566
 1 -1.74365404640464 -5.05193246694670  3.66623726032603
 1 -1.42090610391039 -2.91391986908691  3.58474262746275
 8 -11.74082245654565  3.89403420262026 -0.75850766446645
 1 -12.85844635613561  2.08381962206221 -0.92034263926393

