%nproc=4
%Mem=4GB
# td=(NStates=1) iop(3/107=0140000000,3/108=0140000000) iop(3/107=0140000000,3/108=0140000000) CAM-B3LYP/6-31G(d,p) 

TD

0 1
12 -5.60291179777978  1.14755963026303  0.26044464966497
 6 -5.02078246544654 -2.17393585688569 -0.38518538533853
 6 -3.41550033913391  1.15790607540754  2.77834320762076
 6 -6.05692448814882  4.53516678087809  0.56652686148615
 6 -7.96048181528153  1.12315316601660 -2.40190786428643
 7 -4.31551580488049 -0.37103529532953  0.95570690949095
 6 -4.25050857835784 -1.54619832143214  0.66596894649465
 6 -3.14686781128113 -2.33118642144214  1.54472883658366
 6 -2.81816498749875 -1.24011690259026  2.66496305240524
 6 -3.50011743914391 -0.03467609530953  2.10277486268627
 6 -3.50814385378538 -1.78125156655666  3.95815851525153
 6 -1.93600879407941 -2.64437184648465  0.69123442894289
 6 -0.86563820732073 -3.43504108470847  1.56006959495950
 6  0.19674477497750 -3.89956379707971  0.68109630433043
 8  0.41529159345935 -3.45352266586659 -0.45826206040604
 8  1.01491833753375 -4.71396101340134  1.30993560086009
 7 -4.85466628292829  2.60830020692069  1.52803303500350
 6 -4.00229231903190  2.48494591629163  2.58587919121912
 6 -3.66889639333933  3.78477697989799  3.24376493269327
 6 -4.38429898259826  4.67998952725272  2.40635990729073
 6 -5.10915701990199  3.93050114531453  1.47100319261926
 6 -2.68867423052305  3.86650402620262  4.30876506590659
 6 -4.51668819941994  6.01650907140714  2.80998050285028
 8 -4.04613466146615  6.65189307730773  3.75667956785679
 7 -6.86835063496350  2.63553344914491 -0.80343199949995
 6 -6.91075379017902  3.95143476067607 -0.32845453415342
 6 -7.79382456885689  4.67320404520452 -1.29983409290929
 6 -8.33767322062206  3.67311424132413 -2.14564350875087
 6 -7.68636752725273  2.46052206100610 -1.80358630513051
 6 -8.35805879677968  5.99079898929893 -1.09346885568557
 6 -9.37293165646565  3.86612701090109 -3.23906853965397
 6 -8.68979043274327  4.21744989118912 -4.55478188218822
 7 -6.38827724672467 -0.17810282798280 -0.95543063506351
 6 -7.30047957755776  0.02013594499450 -2.01966617731773
 6 -7.58399590679068 -1.34934663826383 -2.64697722032203
 6 -6.63393294209421 -2.13982355415542 -2.04506067176718
 6 -5.98332674807481 -1.41973553865387 -1.05126125652565
 6 -8.53683914171417 -1.63730385638564 -3.70458735493549
 6 -6.17240090719072 -3.55824140804080 -2.03257681278128
 8 -6.54107850335034 -4.49946764516452 -2.78052431753175
 6 -5.08491705380538 -3.59866791939194 -0.88293061286129
 6 -5.32461993939394 -4.70138557965797  0.10041371317132
 8 -5.72685845744574 -4.59670867896790  1.25109147254725
 8 -5.02647234543454 -5.81884308070807 -0.52268541314131
 6 -5.19351691589159 -7.01330318361836  0.31163299309931
 6  2.27961893509351 -5.17328844904490  0.74457841224122
 6  3.38312284728473 -4.16439660056006  0.97955585538554
 6  4.02583197339734 -3.30336320642064  0.23545718071807
 6  3.61684602350235 -3.12281722302230 -1.20724022852285
 6  5.07393381918192 -2.40804585218522  0.73259705850585
 6  6.48545341664166 -2.81920484568457  0.24396586398640
 6  7.65877120072007 -1.84622397789779  0.62687837833783
 6  8.99694051535153 -2.11535636923692 -0.03976175867587
 6  9.44075045674568 -3.50963160356036 -0.02051550925093
 6  9.93687426652665 -0.95010524792479  0.37234975047505
 6  11.22057936033603 -0.86122572947295 -0.32675144134413
 6  12.17113480208021  0.24924955245525  0.17258410601060
 6  13.42934539033903  0.46701157105711 -0.52318708190819
 6  14.33300159915992 -0.74769417201720 -0.42507665856586
 6  14.21658759835984  1.79397556915692 -0.21202045684568
 6  15.44195838623862  2.16659468766877 -1.05876087108711
 6  15.93407599199920  3.47618237103710 -0.52640325352535
 6  17.22494774387439  4.05335317691769 -1.33994792999300
 6  17.05585817551755  4.20232512421242 -2.82016424062406
 6  17.77769717581758  5.28347361266127 -0.84312377127713
 1 -2.72657838063806  1.05234951035104  3.73181364976498
 1 -6.18211619041904  5.71506688708871  0.55591458315832
 1 -8.73678408560856  0.97081738463846 -3.27502298109811
 1 -3.59636070087009 -3.31893720912091  1.86937499829983
 1 -1.72602972687269 -1.17142480408041  2.89842111821182
 1 -3.11028080718072 -2.85027818901890  4.13962750675067
 1 -3.53761455415542 -1.25075497989799  4.84786681648165
 1 -4.58493100480048 -1.88763784468447  3.84455840634063
 1 -2.25122043574357 -3.34195371267127 -0.17205782958296
 1 -1.41122895529553 -1.81533064936494  0.45499362096210
 1 -0.56655208870887 -3.02262355795580  2.27355157385739
 1 -1.53616833843384 -4.40085721692169  1.78244004200420
 1 -1.65624573837384  3.66170569496950  4.06993290299030
 1 -2.44898588868887  4.90361756775678  4.46666292399240
 1 -2.78537153215322  3.06726772427243  5.02062706870687
 1 -5.20889395329533  6.60066426082608  2.35196051745174
 1 -10.22046117961796  3.10427108420842 -3.21003425512551
 1 -9.74836563446345  4.70955479957996 -2.87129742044204
 1 -9.43328312811281  4.27901631563156 -5.52287749004901
 1 -8.18022753215322  5.17491723712371 -4.57707766276628
 1 -7.99053890289029  3.48054741354135 -4.88459838463846
 1 -8.37419500910091 -1.09974051695169 -4.59626062436244
 1 -8.23315429842984 -2.73745715081508 -4.04594723172317
 1 -9.71659173867387 -1.64145096849685 -3.64968187488749
 1 -4.21128848624863 -4.05647047364736 -1.40523381028103
 1  2.29535066806681 -6.27123506650665  1.05073103000300
 1  2.04932567596760 -5.32179915601560 -0.42491594119412
 1  3.96048817111711 -4.18298758055806  1.85847085468547
 1  2.55075006170617 -3.53491911301130 -1.24631717271727
 1  3.81117573087309 -2.10861442074207 -1.56731920242024
 1  4.42928510251025 -3.60337406660666 -1.95812473837384
 1  5.09481952285229 -1.41090751475148  0.51950383388339
 1  4.97963649094909 -2.26890852325233  1.85120000030003
 1  6.78647617431743 -3.80049324142414  0.26900478447845
 1  6.45475563596360 -2.83002061106111 -0.95081567706771
 1  7.10624955625563 -0.80074339943994  0.54099134463446
 1  7.83971607450745 -1.93536011911191  1.69712409770977
 1  8.82840694999500 -1.99537781298130 -1.08646198429843
 1  8.77253177187719 -4.21965073647365 -0.60016380878088
 1  10.50039938073807 -3.70425462756276 -0.30535064856486
 1  9.42810187158716 -3.82192328382838  1.00185062776278
 1  9.51905105570557  0.07598332453245  0.34937030083008
 1  10.26635673317332 -1.27710424432443  1.42455199519952
 1  11.79662480378038 -1.88492852475248 -0.41735610881088
 1  10.87328341504150 -0.61620452535254 -1.42306363996400
 1  11.42489352285229  1.19525395459546  0.24513495829583
 1  12.21560638393839 -0.01961076967697  1.21115939613961
 1  13.26457325802580  0.57601203350335 -1.70033227192719
 1  14.47993733203320 -0.89920813351335  0.49071475147515
 1  13.90595616661666 -1.53483249954995 -0.89858618011801
 1  15.24253524192419 -0.66370956915692 -0.95886277877788
 1  13.44003219741974  2.62893751285128 -0.31093288098810
 1  14.43366006630663  1.67082737193719  0.86876409030903
 1  16.14834649044904  1.19623823652365 -0.98244473517352
 1  15.19014459785979  2.07142105490549 -2.06718809850985
 1  15.19593099769977  4.15631100910091 -0.76445844394439
 1  16.26709948004801  3.54085072647265  0.55837573797380
 1  17.80864454585458  3.17230872207221 -1.24037311691169
 1  16.40725144554455  5.18725525442544 -3.09503186298630
 1  18.05070099359936  4.49629914321432 -3.37174177927793
 1  16.50161036123612  3.36289735973597 -3.15609364396440
 1  17.89926597379738  5.26594781228123  0.22524418861886
 1  18.73593111541154  5.76649080128013 -1.35025193959396
 1  17.15833738463846  6.22851235433543 -0.96818087938794
 1 -4.77854315571557 -7.71754118721872 -0.28875241294129
 1 -6.21931636193619 -7.00955804240424  0.59305281278128
 1 -4.60774894349435 -7.09513108870887  1.23695815241524
 8 -7.96110370197020  6.84760126092609 -0.29079686368637
 1 -9.40898919601960  6.22910855575557 -1.71241692449245

