%nproc=4
%Mem=4GB
# td=(NStates=1) iop(3/107=0140000000,3/108=0140000000) iop(3/107=0140000000,3/108=0140000000) CAM-B3LYP/6-31G(d,p) 

TD

0 1
12 -5.58861036763676  1.33472834713471  0.11345995119512
 6 -5.04060444764476 -2.11631009430943 -0.18420528732873
 6 -3.35651444054405  1.16731701650165  2.77319269256926
 6 -6.22795159085909  4.57624088828883  0.59593980278028
 6 -7.99774554165417  1.08205905660566 -2.31655932943294
 7 -4.36688094139414 -0.25394358615862  1.09025036383638
 6 -4.23772730023002 -1.66276997859786  0.71254360396040
 6 -3.22910603510351 -2.36230953375338  1.55002936663666
 6 -2.89179235023502 -1.30820371127113  2.65260181628163
 6 -3.62787021442144 -0.07716034373437  2.14818940414041
 6 -3.35886892629263 -1.61800524192419  4.07895059445945
 6 -2.00374556775678 -2.54765217451745  0.65796110161016
 6 -0.95725736923692 -3.56794437503750  1.31519510751075
 6  0.29553465396540 -3.71780562126213  0.50828902360236
 8  0.48068813311331 -3.29165647924793 -0.63874010821082
 8  1.09938678437844 -4.65441505880588  1.12259686698670
 7 -4.87627844414441  2.60977035393539  1.52560279197920
 6 -4.00335242504250  2.44110153185319  2.47429803310331
 6 -3.80209971367137  3.64310281248125  3.12254281048105
 6 -4.57130768346835  4.58744027232723  2.58031730303030
 6 -5.26297240144014  3.94503259845985  1.50718681098110
 6 -2.87926328942894  3.84648202400240  4.31160534993499
 6 -4.73246977757776  6.09038645914591  2.85154465926593
 8 -4.21904195219522  6.63905179317932  3.92996689658966
 7 -6.85334913481348  2.58764866066607 -0.73577523382338
 6 -6.96868958375838  3.97510712791279 -0.46985867456746
 6 -7.90098528492849  4.60752747754775 -1.18657276677668
 6 -8.43867332063206  3.58566549644965 -2.13873281768177
 6 -7.76286517701770  2.39053506230623 -1.70823677017702
 6 -8.20842383328333  6.00058996839684 -1.25829533833383
 6 -9.46230059335934  3.78195859405941 -3.17182181498150
 6 -8.93583503720372  3.93014116031603 -4.68094449844985
 7 -6.37510592959296 -0.13890890859086 -1.16002109410941
 6 -7.32248177777778 -0.04694076267627 -2.04912912361236
 6 -7.64113162036204 -1.42441414501450 -2.60918344094409
 6 -6.69952950175017 -2.23702327412741 -1.86597276297630
 6 -6.05133354875487 -1.48384194929493 -0.93541967236724
 6 -8.38179363716372 -1.62899302530253 -3.79364626082608
 6 -6.30469413651365 -3.60527611151115 -1.80973452855286
 8 -6.64369876537654 -4.53671136953695 -2.43649991509151
 6 -5.06174473657366 -3.58118617121712 -0.72857517731773
 6 -5.34680215761576 -4.64210965206521  0.27003067486749
 8 -5.75674144574457 -4.50269927802780  1.37297366076608
 8 -5.02495219341934 -5.81590278667867 -0.39031217581758
 6 -5.40050761496150 -7.00439229252925  0.38264009380938
 6  2.38248922212221 -4.97189831003100  0.52891684608461
 6  3.43794832983298 -4.05859602050205  0.85393329312931
 6  4.04893428362836 -3.16900977107711  0.04807844284428
 6  3.72358669756976 -2.98972391369137 -1.38171767626763
 6  5.17479390519052 -2.27011205880588  0.51758555735574
 6  6.53383825512551 -2.71911483668367 -0.13569210181018
 6  7.60446577017702 -1.84620397589759  0.40287597809781
 6  9.00820164146415 -1.98443327692769 -0.25192297479748
 6  9.53122950465047 -3.49430007040704 -0.03180663836384
 6  9.99624020312031 -1.03132336973697  0.27320983648365
 6  11.33848115051505 -0.92873248014801 -0.34103286948695
 6  12.35764345294529  0.11109573707371  0.29783663126313
 6  13.71793424922492  0.41963683358336 -0.49852461566157
 6  14.54913321232123 -0.90923032563256 -0.28003215411541
 6  14.32556849644964  1.65175134673467 -0.07107636243624
 6  15.50578476887689  2.11736976517652 -0.89816481148115
 6  16.01361394579458  3.54756950975098 -0.49867048024802
 6  17.22825807490749  3.92418025962596 -1.26806074127413
 6  17.20388297799780  4.11057594929493 -2.76679890409041
 6  17.90328973507351  5.25766103140314 -0.60207966686669
 1 -2.97379310211021  1.11976625202520  3.74720518891889
 1 -6.46968494729473  5.54301968236824  0.94730372207221
 1 -8.85924633183318  0.82276257915792 -2.93211869066907
 1 -3.58133919871987 -3.27945326072607  2.04631269206921
 1 -1.91194831873187 -0.88080574217422  2.76422769886989
 1 -2.30750052915292 -2.29808296949695  4.49901344534453
 1 -3.30059085178518 -0.95078498289829  4.85947797759776
 1 -4.36881939363936 -2.05830491139114  4.21762571307131
 1 -2.24644995869587 -2.90127964526453 -0.48010863466347
 1 -1.49279711211121 -1.62692180848085  0.52140026162616
 1 -0.66034146764676 -3.28015931153115  2.29280349904991
 1 -1.47089181078108 -4.74363149434944  1.36533833183318
 1 -1.93498361216122  3.72267179157916  4.02552846254625
 1 -3.04584557465747  4.76660386638664  5.05389164686469
 1 -3.06728972397240  3.00217121462146  4.91637664366437
 1 -5.30839390329033  6.67743193759376  2.15757107850785
 1 -10.23130226372637  2.93101375847585 -2.94771802350235
 1 -9.98177897579758  4.70282412651265 -2.96773706440644
 1 -9.71058085788579  4.21743015701570 -5.37917311961196
 1 -7.93400290969097  4.78936868226823 -4.72993294829483
 1 -8.74726457545755  2.86123548234823 -5.29767969276928
 1 -8.08984657425743 -1.17326786968697 -4.59120011831183
 1 -8.27045802880288 -2.63622702780278 -4.01757439443944
 1 -9.58549862936294 -1.18714553795379 -3.88370527722772
 1 -4.02574993239324 -3.86780160676068 -1.42347563446345
 1  2.48074920792079 -6.14945288828883  0.74465042194219
 1  2.26274701810181 -4.97294427052705 -0.59723317291729
 1  3.79641176347635 -4.15497477927793  1.80011501910191
 1  2.69880486718672 -3.26233185428543 -1.70892343334333
 1  3.75650026332633 -1.97328088738874 -1.58918138863886
 1  4.52029420342034 -3.47528125732573 -2.05622454835484
 1  4.98087812871287 -1.26386281028103  0.52056393989399
 1  5.23931245854585 -2.68046967936794  1.55761064136414
 1  6.70514804150415 -3.81906509860986  0.02551043504350
 1  6.09936009640964 -2.46155376437644 -1.22322291779178
 1  7.48096702800280 -0.80201352645265  0.11167841334133
 1  7.84150625352535 -1.90771735483548  1.38730311561156
 1  8.95548965826583 -1.99921819701970 -1.32702604070407
 1  9.02685720442044 -4.27958673007301 -0.36814060646065
 1  10.44671401220122 -3.72067626972697 -0.47862797629763
 1  9.73353241464146 -3.62436352785278  1.05617606030603
 1  9.56087523812381  0.01569729592959  0.13577894169417
 1  9.98156825432543 -1.00830736463646  1.29521906190619
 1  11.80971611291129 -1.94869490139014 -0.10221459465947
 1  11.25625171187119 -1.00842374727473 -1.41205253885389
 1  11.83096412991299  1.05175960516052  0.41704214901490
 1  12.47616243954395 -0.06663547214721  1.22158043824382
 1  13.75500230093009  0.51529596189619 -1.55664790349035
 1  14.73468280658066 -1.23771198389839  0.75326100610061
 1  14.04960053105311 -1.70606962326233 -0.81659798129813
 1  15.58143913231323 -0.47145034323432 -0.60539743224322
 1  13.54972316651665  2.33539815891589 -0.23071485918592
 1  14.45394209450945  1.63003329252925  0.88498571247125
 1  16.31678333413341  1.45125373807381 -1.07776426712671
 1  15.24476005940594  2.37565147794779 -2.01712309200920
 1  15.08663006760676  4.24236961496150 -0.42598459655966
 1  16.22338510861086  3.54504114551455  0.48450835123512
 1  18.06499018041804  3.22746423762376 -0.89552863246325
 1  16.50217093749375  4.94268079697970 -2.92312467226723
 1  18.21526745024503  4.28633814711471 -3.11590619571957
 1  16.80191039123913  3.07378844884489 -3.33288132273227
 1  18.11240728792879  5.04650586808681  0.34424608880888
 1  18.82905042734274  5.38271242344234 -0.91877879227923
 1  17.15190674157416  6.23555305840584 -0.63987804910491
 1 -5.19534483588359 -7.95170460356036 -0.21154469216922
 1 -6.34284871517152 -6.96448353495350  0.67793130063006
 1 -4.87474564316432 -7.08388996459646  1.43855831243124
 8 -7.72581017261726  6.83014951575158 -0.52027981198120
 1 -9.00122841994199  6.11057670257026 -2.09963564636464

