%nproc=4
%Mem=2GB
# td=(NStates=1) iop(3/107=0140000000,3/108=0140000000) iop(3/107=0140000000,3/108=0140000000) CAM-B3LYP/6-31G(d,p) 

TD

0 1
12 -6.73412598469847  0.53205234933493  0.04421204070407
 6 -4.44359146564656 -2.01388981078108  0.40156043304330
 6 -4.36226804220422  2.81135276837684  0.99974285588559
 6 -9.21492419711971  3.19634365846585 -0.05132463416342
 6 -9.20649874747475 -1.63343637323732 -0.69458951765176
 7 -4.72495756765677  0.41721111881188  0.58251728382838
 6 -3.98681594719472 -0.82818252505251  0.71787234263426
 6 -2.50530394899490 -0.45035679487949  1.10456251855186
 6 -2.54233419921992  1.02136228502850  1.35718788128813
 6 -3.92147841074107  1.38019810501050  1.01038581328133
 6 -2.06502278797880  1.32011380728073  2.82790735353535
 6 -1.62459120752075 -0.93638620202020 -0.12272094579458
 6 -0.21070918921892 -1.03623533013301  0.38035710921092
 6  0.92603368256826 -1.17986522342234 -0.70843901770177
 8  0.79165923402340 -0.87883049554956 -1.88402939313931
 8  1.85322560916092 -2.00323062166217 -0.33424834733473
 7 -6.67204894709471  2.61744211421142  0.20372412031203
 6 -5.62585314621462  3.26084472767277  0.65334163036304
 6 -5.89259347454746  4.73260294509451  0.73259812841284
 6 -7.22202291569157  4.87141323182318  0.35476205950595
 6 -7.74153585748575  3.45333414181418  0.17877270867087
 6 -4.89243416371637  5.78146557705771  1.05881354935494
 6 -7.86948851015101  6.10188710881088  0.21945146884688
 8 -7.35618953515351  7.29810142674267  0.21864972177218
 7 -8.80090364386439  0.80784164336434 -0.43069571867187
 6 -9.43833750615062  1.85480021532153 -0.55784683698370
 6 -10.84361099139914  1.56182605370537 -0.78721450265027
 6 -10.94183854135414  0.16269717411741 -0.96898775427543
 6 -9.60185184848485 -0.28832699589959 -0.81996407310731
 6 -11.99952672797280  2.52259845294529 -1.04652930373037
 6 -12.12784590509051 -0.60374393669367 -1.39518765246525
 6 -12.14807166926693 -0.84719688488849 -2.93115591029103
 7 -6.86859334223422 -1.46788935023502 -0.00996364086409
 6 -8.05801846344634 -2.28513851055106 -0.45446864486449
 6 -7.60375796089609 -3.74757207960796 -0.51689269936994
 6 -6.19358497969797 -3.63083224412441 -0.15067332793279
 6 -5.82796908560856 -2.19688850335033  0.00069625392539
 6 -8.40556908040804 -4.71704908270827 -1.00644346024602
 6 -5.00335654015402 -4.40071586968697  0.21303932963296
 8 -4.78982073077308 -5.64594513281328  0.11128163476348
 6 -3.86622034743474 -3.53072363156316  0.62928757595760
 6 -3.26124963586359 -3.76280245574557  2.08875858885889
 8 -3.78680392049205 -4.24144087888789  3.16787545734573
 8 -2.00613228812881 -3.68208451375138  1.93173311251125
 6 -1.13617213931393 -4.15476056615662  3.04451887708771
 6  2.95119701250125 -2.02704788168817 -1.27356860096010
 6  3.90777454485449 -0.99437643874387 -1.01747728002800
 6  5.01498225362536 -0.86836370777078 -1.78749495109511
 6  5.22828681248125 -1.54961809650965 -3.14822180438044
 6  6.14141796639664  0.11186353345335 -1.43940049854986
 6  7.41916061006101 -0.49671545364536 -0.93244998229823
 6  8.35965852615261  0.37540317491749 -0.30222870337034
 6  9.72235532493249 -0.29759667996800  0.15677737203720
 6  9.50635815211521 -0.87249606430643  1.17025139393939
 6  10.93509583958396  0.63517837203720  0.00342518091809
 6  12.32060733123312 -0.23138183098310  0.36792510371037
 6  13.57886942954295  0.76169344404440  0.46133903230323
 6  14.88595493069307  0.16833011111111  0.43045770787079
 6  15.06661164926493 -0.42403468396840  1.81629155315532
 6  15.99793942234223  1.30936583858386  0.37135034033403
 6  17.25317479557956  0.72727795219522 -0.09517639153915
 6  18.50081962936294  1.65839303050305 -0.50315046184618
 6  19.74551675277528  1.20679917471747 -0.55311539523952
 6  19.62503230453045  0.28337376767677 -1.74680047124712
 6  20.78499566846685  2.12174359235924 -0.48842393829383
 1 -3.42785342364236  3.05819707070707  1.06894629632963
 1 -9.97892187468747  3.84002308740874 -0.01790542444245
 1 -10.48134062566256 -2.16364676397640 -0.76040886678668
 1 -2.01862437923792 -1.35578319611961  1.80529057735774
 1 -1.92366170477048  1.74353482968297  0.24124057745775
 1 -1.38700008370837  0.84126244064406  3.15717642874287
 1 -2.08467664156416  2.37583616001600  2.87178329612961
 1 -2.86626895939594  1.07826571187119  3.44599046814682
 1 -1.82689170947095 -1.68406967996800 -0.71679946674667
 1 -1.59337450645064 -0.21817329022902 -0.90668045884588
 1 -0.16301830353035 -0.21393282658266  0.99432529772977
 1 -0.22246596639664 -1.99071540534053  1.16419665176518
 1 -3.99429395979598  5.55588341624162  0.29627458515852
 1 -5.36817709830983  6.73199587548755  1.06525343144314
 1 -4.83771479967997  5.63653261426143  2.22172994529453
 1 -8.70639365346535  5.99223433263326 -0.37252362816282
 1 -12.24578413201320 -1.43165403290329 -0.47746217341734
 1 -13.09747596259626  0.07770417021702 -1.13222085848585
 1 -13.04413223632363 -1.34795691109111 -3.29517663476348
 1 -12.10038700250025  0.04869229072907 -3.71277344684469
 1 -11.16130295469547 -1.50388370537054 -3.14777138453845
 1 -8.61292047534753 -4.92125868146815 -2.12910513851385
 1 -8.05857107170717 -5.82662267486749 -0.88322797469747
 1 -9.50895817581758 -4.97059902110211 -0.77541293179318
 1 -2.88384796619662 -3.65394911981198 -0.18458676547655
 1  3.36770838623862 -2.89241651545154 -0.82443816091609
 1  2.61900618941894 -1.92881879687969 -2.24935517081708
 1  3.58682601030103 -0.34753750215022  0.10661426302630
 1  4.33486654365436 -1.33318679117912 -3.71390150515051
 1  6.06963054145415 -1.22552122752275 -3.87936916081608
 1  4.83921774917492 -2.62363497779778 -3.01911609540954
 1  6.32906332823282  0.92065740314031 -2.27823044024402
 1  5.72325743514351  0.88780432823282 -0.84364862826283
 1  7.07224840374037 -1.23118131523152 -0.28043632203220
 1  7.81377677607761 -1.09782857315732 -1.60085956185619
 1  8.94900703210321  1.13943453825383 -1.00054283958396
 1  8.06272477057706  0.89921510971097  0.53996970537054
 1  9.87935038213821 -0.84852229592959 -0.45780293789379
 1  8.29323156745675 -1.34092290799080  1.12108046884688
 1  10.20062613201320 -1.91557543874388  1.50880277167717
 1  9.32517572917292 -0.37811903430343  2.04031533663366
 1  10.89991362916292  0.99265202510251 -1.07246441804180
 1  10.98294804140414  1.35314419001900  0.59038291859186
 1  12.18302584478448 -0.76342878237824  1.59211289458946
 1  12.92927508150815 -0.75643386398640 -0.31527452495250
 1  13.49044391439144  1.64572411741174 -0.41704060866087
 1  13.47796984178418  1.50470472177218  1.31160695009501
 1  15.04182560836083 -0.43599111511151 -0.25236342754275
 1  14.36326622652265  0.36103649914991  2.81920469346935
 1  14.37332460596059 -1.62885055695569  2.30249774787479
 1  16.11794882798280 -0.93926750985098  2.22151862956296
 1  15.58136927182718  2.05066505990599 -0.62927290199020
 1  15.88716274887489  2.18375791129113  0.99687801100110
 1  17.47106842194219  0.10088325892589  1.09978016471647
 1  17.30746827102710 -0.02515434623462 -0.91172254965497
 1  18.26629163626363  2.43904045184518 -1.42864585288529
 1  18.56917691379138  2.41362526942694  0.18392506300630
 1  19.90567312851285  0.59725257145715  0.36423977477748
 1  19.31518983698369  1.04076912651265 -2.43436556175618
 1  20.33830812081208 -0.25922772457246 -1.99211334473447
 1  18.85819854685469 -0.53790150855085 -1.82338041274127
 1  20.50854763336334  2.62005158425843  0.47793854745475
 1  21.92290003030303  1.75089167186719 -0.11185390039004
 1  20.96658331123112  2.85881336853685 -1.54848964526453
 1 -0.27068269336934 -4.41408415781578  2.63766211421142
 1 -1.60432011301130 -5.11285855955596  3.30389102570257
 1 -1.40194420772077 -3.52258073517352  3.81134528772877
 8 -11.81319969426943  3.72880767996800 -0.91751356505651
 1 -12.79888039953995  2.37887912801280 -1.36965757075708

