%nproc=4
%Mem=2GB
# td=(NStates=1) iop(3/107=0140000000,3/108=0140000000) iop(3/107=0140000000,3/108=0140000000) CAM-B3LYP/6-31G(d,p) 

TD

0 1
12 -6.59799237133713  0.59161830593059  0.05030264976498
 6 -4.43707081358136 -2.02140056185619  0.44609488648865
 6 -4.11547336273627  2.96005763886389  0.80718359996000
 6 -8.91924462916292  3.22409643374337 -0.26255575727573
 6 -9.27695579317932 -1.74018704830483 -0.38669872857286
 7 -4.57304237613761  0.43506290399040  0.50290932303230
 6 -3.93154041964196 -0.84998470527053  0.57269782518252
 6 -2.50537395599560 -0.55391715091509  0.97359942224222
 6 -2.51235120092009  0.92974312311231  1.18903106560656
 6 -3.70253651655166  1.44610469566957  0.83377815251525
 6 -2.21330761646165  1.26012780868087  2.66070063286329
 6 -1.61231998039804 -0.87675023842384 -0.32024069776978
 6 -0.05794391269127 -0.96391809840984  0.16188526202620
 6  0.81348242744274 -1.24052128902890 -0.96283445724572
 8  0.88708877697770 -0.72257486998700 -2.08217920812081
 8  1.76904719131913 -2.11267156575658 -0.62059698219822
 7 -6.67019876207621  2.61856222622262  0.38819256715672
 6 -5.44090465136514  3.38855749894990  0.54829112531253
 6 -5.84354857005701  4.82539222402240  0.68502337093709
 6 -7.06780749414941  4.93549964046405  0.13204978827883
 6 -7.73433513741374  3.53785259365937  0.04869970137014
 6 -4.86777169746975  5.72562999349935  0.92170983898390
 6 -7.82368392969297  6.22040896099610 -0.03845432173217
 8 -7.45672958915892  7.26918853545355  0.43311116791679
 7 -8.70310386388639  0.61417227642764 -0.21797444654465
 6 -9.37282095449545  1.85158989428943 -0.39095014731473
 6 -10.73618024832483  1.58056792789279 -0.72355813701370
 6 -10.86689104660466  0.23374427882788 -0.79013986948695
 6 -9.61875353865386 -0.31935009820982 -0.53111518821882
 6 -11.89985676097610  2.58950514361436 -0.77865251605161
 6 -12.07206032653265 -0.53067662996300 -1.12584071777178
 6 -11.85214207630763 -0.96152831803180 -2.65374816951695
 7 -6.89890637353735 -1.45686824812481  0.06427378287829
 6 -8.07358001960196 -2.37170716741674 -0.17575077307731
 6 -7.67293487858786 -3.68438576097610 -0.12802381248125
 6 -6.38728434963496 -3.71001016191619  0.10723246264626
 6 -5.97302359105911 -2.30207902240224  0.20317650195020
 6 -8.62818134163416 -4.92230960876088 -0.30783359925993
 6 -5.10329653415342 -4.56434223232323  0.30534856055606
 8 -5.05692744144414 -5.67453799209921  0.11224173077308
 6 -3.88004172957296 -3.53349390859086  0.40682532973297
 6 -3.09730324122412 -3.81693786928693  1.65350506350635
 8 -3.81550679077908 -4.09053578837884  2.72742141194119
 8 -1.71696337123712 -3.59234553985399  1.60706064526453
 6 -0.92495101720172 -3.82567765786579  2.68794321952195
 6  2.99908180098010 -2.30985616251625 -1.44511575567557
 6  4.08211197859786 -1.48419542064206 -1.05110064236424
 6  5.05109586498650 -0.82375924732473 -1.90325652725273
 6  5.06672065586559 -1.21853498819882 -3.29692667486749
 6  6.06014983958396  0.03017536463646 -1.28400495899590
 6  7.34310300430043 -0.78141392349235 -0.95291202850285
 6  8.23614617491749  0.30412604720472 -0.25233371387139
 6  9.54967805720572 -0.37547446774677 -0.19792809850985
 6  9.31814933123312 -1.45142395709571  1.11102547134713
 6  10.78564089408941  0.66918177237724  0.10980581898190
 6  12.12108737923792 -0.09098779157916  0.08477678887889
 6  13.24042558515852  0.91920919561956  0.19733263166317
 6  14.87759409460946  0.31794507260726  0.40895555765577
 6  14.79561454955495 -0.33457573807381  1.88209813381338
 6  15.79837946634663  1.33689859185919  0.11662486778678
 6  17.30615009310931  0.70915614001400  0.24341746784678
 6  18.29469901730173  1.67421461266127  0.04111396459646
 6  19.67636983808381  1.19887838263826 -0.28190827452745
 6  19.72082188348835  0.45778120842084 -1.66792258345835
 6  20.61456862576258  2.29110052805281  0.01111601570157
 1 -3.25903654195419  3.76946819781978  1.16774617631763
 1 -10.01187517001700  3.90637972307231 -0.27096072997300
 1 -10.16068856045604 -2.39789018831883 -0.22634546044604
 1 -2.44243676047605 -1.10357797559756  1.98104815311531
 1 -1.75300463906391  1.78144862106211  0.86376282968297
 1 -1.00564194789479  1.17595590999100  2.78413912501250
 1 -2.77622579647965  2.36220479687969  2.86370248804881
 1 -2.71090342284228  0.45973385868587  3.24394026312631
 1 -1.83620264056406 -1.77332860586059 -0.64660244704470
 1 -2.00488565756576  0.05745427252725 -0.96361615241524
 1  0.13622162046205  0.06186475317532  0.62900876607661
 1 -0.01969568936894 -1.84170050385039  0.94805503760376
 1 -3.90892542294229  5.77079490739074  0.41324628232823
 1 -5.19512979357936  6.66004868076808  1.22467937403740
 1 -4.36604763296330  5.24437339833983  1.87571534383438
 1 -8.72995600970097  5.95790089928993 -0.50173654945494
 1 -11.91895144874487 -1.20729159665967 -0.43519794699470
 1 -13.05657187218722  0.06776317611761 -0.79425706210621
 1 -12.66661448454846 -1.62746486188619 -2.99050616771677
 1 -11.73595055885589 -0.17333991249125 -3.31742391189119
 1 -11.08821564596460 -1.80747406440644 -2.61647825522552
 1 -8.88723790709071 -5.06879343494349 -1.10147237523752
 1 -8.10640585518552 -6.02575258785879 -0.02805245714571
 1 -9.30827810781078 -4.60934289548955  0.61995660516052
 1 -3.19313889528953 -3.54766849174917 -0.41487979477948
 1  3.39110072547255 -3.35751302510251 -1.42003772087209
 1  2.64755904470447 -1.89453536853685 -2.54791502680268
 1  4.21198852655266 -1.10514326272627  0.06897049864986
 1  4.19165222222222 -1.05475894839484 -3.79680979597960
 1  5.71298487688769 -0.30773944934493 -3.86323754765477
 1  5.15981980938094 -2.33094570887089 -3.52713689748975
 1  6.38134855675568  0.98848418581858 -2.24121673887389
 1  5.23674878427843  0.51794734253425 -0.24886915031503
 1  7.36148732763276 -1.58751694879488 -0.20601888028803
 1  7.78207360576058 -1.24742353265327 -1.68145762166217
 1  8.38171030243024  1.07743833863386 -0.92796558185819
 1  7.90759925802580  0.76864205240524  1.01346705510551
 1  9.65286773387339 -1.16794423812381 -1.04311146874687
 1  8.48896114041404 -2.12954176987699  0.93668202900290
 1  10.28169423882388 -2.21359524072407  1.11735362676268
 1  9.17833104470447 -0.82997421982198  2.06976828192819
 1  10.57819145694569  1.33491625152515 -0.55602277387739
 1  10.63978372497250  1.25819469506951  1.15928980928093
 1  12.17235477767777 -1.07422986248625  0.70389407270727
 1  12.34597675167517 -0.77434565516552 -1.19975297279728
 1  13.57394226422642  1.85815536053605 -0.47351625622562
 1  12.75224726952695  1.24188844014401  1.28498428782878
 1  14.57625905170517 -0.57849536553655 -0.31904009520952
 1  14.47074697459746  0.66059645514552  2.88926169916992
 1  14.52577985148515 -1.21096876877688  2.42606010411041
 1  15.75497253035303 -0.79238282138214  2.07388386608661
 1  15.77406854175417  1.89679967336734 -0.86147612231223
 1  15.73540757335734  2.07032656815682  0.98260658385839
 1  17.14612592769277  0.20502367296730  1.39135932263226
 1  17.46267379157916 -0.06478830963096 -0.57940931833183
 1  18.01233624072407  2.44772131993199 -0.92092508080808
 1  18.55416541264126  2.42200610751075  0.75985265576558
 1  19.74472703390339  0.45993884008401  0.58157150795080
 1  20.00577889588959  1.08043309290929 -2.64043616881688
 1  20.77440173017301 -0.17214901670167 -1.54604873827383
 1  18.88459118611861 -0.31955967436744 -2.02901097579758
 1  20.67921470007001  2.99353893299330  1.12994374797480
 1  21.81592933323332  2.09265584828483 -0.22308502350235
 1  20.61267792069207  3.21511899909991 -0.59777457375738
 1  0.34529890479048 -3.74060681008101  2.31987033503350
 1 -1.28024770577058 -5.04048132183218  3.08241887848785
 1 -1.15380939423942 -3.32184066116612  3.61694584778478
 8 -11.80043841814181  3.73364816401640 -0.95121693539354
 1 -12.91647215871587  2.50603184328433 -1.00964156915692

