%nproc=4
%Mem=2GB
# td=(NStates=1) iop(3/107=0140000000,3/108=0140000000) iop(3/107=0140000000,3/108=0140000000) CAM-B3LYP/6-31G(d,p) 

TD

0 1
12 -6.88246081818182  0.60276942104210  0.16450406990699
 6 -4.44065117161716 -1.94208263006301  0.44305458245825
 6 -4.29671148654865  2.79789142224222  0.90481336293629
 6 -9.05060776547655  3.09651367546755 -0.20456995869587
 6 -9.36430452805281 -1.77020004960496 -0.64941500020002
 7 -4.93195826772677  0.49609900760076  0.69166819891989
 6 -4.01358862446245 -0.85446515331533  0.70572112751275
 6 -2.48358177677768 -0.56494825402540  0.88380044234423
 6 -2.44168413421342  1.05210535933593  1.24105626812681
 6 -3.88159442234223  1.51803188838884  0.90295507020702
 6 -1.91748803450345  1.51419321522152  2.56800136293629
 6 -1.48231698009801 -0.88705126852685 -0.14082275597560
 6  0.01882376407641 -0.72156386298630  0.40824989848985
 6  0.89448052725273 -0.92519975687569 -0.82568074187419
 8  0.87060712881288 -0.35552816531653 -1.88170916111611
 8  1.71116140274027 -1.84291459005901 -0.36258118061806
 7 -6.71703344554455  2.66433680368037  0.30321406930693
 6 -5.57938849974998  3.35204384758476  0.51014731093109
 6 -5.93785800100010  4.84133381818182  0.63303817241724
 6 -7.30160087348735  4.92921901240124  0.35063164646465
 6 -7.77996970087009  3.48483729212921  0.14120895229523
 6 -4.93394831513151  5.96204363486349  0.88956662466247
 6 -8.20808236953695  6.08740566066607  0.29486901060106
 8 -7.88116203240324  7.12930454705470  0.58484634143414
 7 -8.81114466796680  0.63886474567457 -0.32601525062506
 6 -9.52706637903790  1.78723345864586 -0.38847990029003
 6 -10.79426605690569  1.52368223932393 -0.87222300350035
 6 -10.95299965746575  0.05171607600760 -0.81627248274827
 6 -9.59794145744574 -0.53157132033203 -0.50398247494749
 6 -11.94757153245324  2.48723491659166 -1.08177282808281
 6 -12.23149627012701 -0.76303986628663 -0.96413454715471
 6 -12.33698056015602 -1.22069423462346 -2.44617741244124
 7 -6.90679716261626 -1.47251981328133 -0.06900954545455
 6 -7.99695235683568 -2.17756775347535 -0.42629582758276
 6 -7.58904648974898 -3.74398172057206 -0.32798380848085
 6 -6.12844846604660 -3.59789895079508 -0.26154441504150
 6 -5.83544983368337 -2.25213402790279  0.08949513381338
 6 -8.38079660316032 -4.77883526132613 -0.65698851475148
 6 -4.97433363786379 -4.39519531763176  0.09360738643864
 8 -4.71273302200220 -5.56250678897890  0.09446995359536
 6 -3.71750547594759 -3.41084164336434  0.38695334253425
 6 -3.30872438333833 -3.80886706220622  1.70891060406041
 8 -3.89590483058306 -3.99759649444945  2.72496116591659
 8 -1.73818549344934 -3.81468777407741  1.61731167036704
 6 -0.98916743884388 -3.93432852295230  2.84252867806781
 6  2.87168906170617 -2.29272444934493 -1.17412865696570
 6  4.07390115751575 -1.18670567166717 -0.93173870617062
 6  4.94856561196120 -0.89124599599960 -1.91111731333133
 6  5.26597058085809 -1.53829696439644 -3.16946392859286
 6  6.03239706430643 -0.02722037493749 -1.53824038253825
 6  7.38315700970097 -0.68849463156316 -0.82752949024903
 6  8.58111067136714  0.43263889848985 -0.72527100760076
 6  9.78132122152215 -0.44348126842684 -0.05746405210521
 6  9.44859237553755 -0.76118493319332  1.33358772757276
 6  10.82257458745875  0.61224607880788 -0.13216837843784
 6  12.24304957545755 -0.02477116991699  0.34375268646865
 6  13.45180672327233  1.06095337003700  0.38376127452745
 6  14.72418875407541  0.28867214531453  0.31277593969397
 6  14.95552054015402 -0.35684796529653  1.57489741374137
 6  15.94845447384739  1.35633053505351  0.24211741704170
 6  17.18454793289329  0.55085030943094  0.02359548564856
 6  18.50480002740274  1.48966615781578 -0.16843699049905
 6  19.98906110721072  0.83323181798180 -0.26775685938594
 6  20.16809661096110 -0.17402197189719 -1.29490528172817
 6  20.87423459235924  2.01333275127513 -0.18160325622562
 1 -3.25395603390339  4.03339459045905  0.88411781348135
 1 -9.92397638013801  3.83902298739874 -0.42833646754676
 1 -10.26785927752775 -2.59420982028203 -0.80213303920392
 1 -2.26053857065707 -0.84335195299530  1.95857590589059
 1 -1.88013735233523  1.62707318351835  0.49047550095010
 1 -0.91991337503750  1.36034434883488  2.50253096419642
 1 -2.58258643254325  2.58310688708871  2.48705482328233
 1 -2.41941427392739  0.95955384068407  3.34205007410741
 1 -1.65103412371237 -1.94138541154115 -0.51308909570957
 1 -1.95117028602860  0.12963149024903 -1.08673846464646
 1  0.52103010131013  0.46273484018402  0.93130899609961
 1  0.44875115531553 -1.48619495329533  1.61739197129713
 1 -4.02996752715272  5.72341016891689  0.25902085978598
 1 -5.35132541314132  6.95155783168317  0.84050095619562
 1 -4.92272330053005  5.96323528452845  2.30260803310331
 1 -8.97581059515952  5.87723283248325 -0.17019339513951
 1 -12.05962551615161 -1.76862773027303 -0.58298272547255
 1 -13.09825604060406 -0.22554615481548 -0.69433707010701
 1 -13.42282010511051 -1.42327444284428 -2.61526864396440
 1 -12.28780574437444 -0.20428300680068 -3.07956012551255
 1 -11.75101192559256 -2.00211352835284 -2.90837744514451
 1 -8.80759994329433 -4.23139969556956 -1.56550877887789
 1 -7.72402761736174 -5.59019903250325 -0.59718937083708
 1 -9.44459173917392 -5.18778073927393  0.27727233673367
 1 -2.96970655205521 -3.34323804870487 -0.60733904070407
 1  3.26263787918792 -3.20027730153015 -0.90971668876888
 1  2.72106639543954 -2.46654256925693 -2.45846608190819
 1  3.69327665536554 -0.44987773617362 -0.07582398079808
 1  4.21474453145315 -1.74162763526353 -3.65735585058506
 1  6.34772835123512 -0.82667134253425 -3.75498672257226
 1  5.78774260166017 -2.86443905820582 -2.83988817261726
 1  6.51816223812381  0.41213655105511 -2.74490710791079
 1  5.60767587698770  0.62329787758776 -0.73319758315832
 1  7.04300547944795 -1.16707490459046 -0.03434171257126
 1  7.62395779417942 -1.39991878217822 -1.44595407130713
 1  8.81290342174217  0.94850544534453 -1.60090287558756
 1  8.17404590269027  1.15399058725873 -0.23499779137914
 1  9.81785423252325 -1.20697814151415 -0.54211136873687
 1  8.40746299059906 -1.27783659935994  1.29930829162916
 1  10.35742181158116 -1.14700858205821  1.89079097049705
 1  9.18520173177318 -0.01356257865787  2.31749305440544
 1  10.95866950475047  1.22477523742374 -1.14494166576658
 1  10.33843358995899  1.62178105370537  0.67723160346035
 1  12.17072461466147 -0.43927636713671  1.12364604790479
 1  12.89098125212521 -0.67266548714871 -0.26575957345735
 1  13.30892576257626  1.47508705370537 -0.64976388098810
 1  13.19135117991799  1.80571482278228  1.46451224062406
 1  14.86829825562556 -0.20251776777678 -0.57958614981498
 1  14.99332923282328  0.34375477097710  2.44799757275728
 1  14.20648792229223 -1.23315098699870  1.94289178727873
 1  15.81858889198920 -0.90551413451345  1.19903638133813
 1  15.68464959985999  1.83807380078008 -0.91621159585959
 1  15.80747478007801  1.96938647414741  1.14156247944794
 1  17.55611692679268 -0.35596242564256  0.85014520122012
 1  17.20417794199420 -0.13742557335734 -0.97973935133513
 1  18.56857186428643  2.18720526832683 -0.94682767106711
 1  18.40957095319532  2.11080498739874  0.66035270577058
 1  20.33235579677968  0.26687953415342  0.78000135093509
 1  19.65273359135913  0.18456350595059 -2.18756088128813
 1  21.09445373537354 -0.42317411921192 -1.65843997739774
 1  19.87068979597960 -1.41771949034903 -1.31028910361036
 1  20.54027080568057  2.88606818591859  0.65452620622062
 1  21.90308804910491  1.82125870857086 -0.16599931493149
 1  20.71076772967297  2.62503999119912 -1.17665246154615
 1 -0.09067469256926 -3.99994274367437  2.59347769576958
 1 -1.02516219721972 -4.82869014271427  3.57999863646365
 1 -1.26453046634663 -3.07817629472947  3.50530468366837
 8 -11.74006238053805  3.63979877907791 -0.86299811351135
 1 -12.88870938243825  2.03431467156716 -1.22739334433443

