%nproc=4
%Mem=2GB
# td=(NStates=1) iop(3/107=0140000000,3/108=0140000000) iop(3/107=0140000000,3/108=0140000000) CAM-B3LYP/6-31G(d,p) 

TD

0 1
12 -6.61896446854685  0.58288743284328  0.17108472797280
 6 -4.56606371287129 -2.20428885068507  0.47349762676268
 6 -4.14380619601960  2.63227486058606  1.14279716131613
 6 -8.59124182888289  3.17647167126713 -0.26238574027403
 6 -9.28409650725073 -1.48933196279628 -0.49360941964196
 7 -4.68730380228023  0.24103350105010  0.78607763986399
 6 -4.00862812841284 -1.06103581038104  0.60516107150715
 6 -2.63885730433043 -0.91035279447945  1.12893495579558
 6 -2.46973693949395  0.66994714351435  1.45728789128913
 6 -3.74571083398340  1.25062514771477  0.98257303200320
 6 -2.00073635933593  1.03651544744474  2.86791135393539
 6 -1.54307305570557 -1.20969353275328  0.00635196149615
 6 -0.16618473677368 -1.42925463206321  0.69266834033403
 6  0.81103218241824 -1.58850608750875 -0.45806398019802
 8  0.76045611371137 -0.91803441594159 -1.65576656685669
 8  1.72729301590159 -2.52956325492549 -0.23671859435944
 7 -6.41832357455746  2.59296966696670  0.34648839673967
 6 -5.26077663856386  3.23525216841684  0.62217851405141
 6 -5.41505572077208  4.67866755155516  0.62057692629263
 6 -6.58965967936794  4.91688777927793  0.14751133443344
 6 -7.35038674257426  3.67416622502250 -0.19783495209521
 6 -4.38153307360736  5.76981441194119  0.94585225322532
 6 -7.24596615791579  6.18478539863986 -0.07022749904990
 8 -7.00040395659566  7.28662027862786  0.52257011381138
 7 -8.64509806330633  0.81563242244224 -0.29667231633163
 6 -9.20311398379838  2.07544227952795 -0.61722277457746
 6 -10.52386901720172  1.86333620472047 -0.87378315951595
 6 -10.80999535703570  0.45491639603960 -1.01240209570957
 6 -9.50419208250825 -0.20107827102710 -0.75904798149815
 6 -11.62714949024902  2.94188038113811 -1.03194784558456
 6 -12.14198731923192 -0.26329989228923 -1.36408454215422
 6 -11.85086194829483 -0.92133429862986 -2.96938973367337
 7 -6.91465794869487 -1.35896845814582 -0.09019166366637
 6 -8.08844150575057 -2.26323632033203 -0.44549774777478
 6 -7.78216580168017 -3.58960628302830 -0.46822783288329
 6 -6.34030965216522 -3.63582274317432 -0.13929218981898
 6 -5.83370965966597 -2.14993380788079 -0.11722553825383
 6 -8.56206472997300 -4.63929130693069 -0.71661447734773
 6 -5.17822402690269 -4.45067086518652 -0.05729770407041
 8 -5.14593634233423 -5.65245578387839 -0.06050554395440
 6 -4.07701142654265 -3.49316987618762  0.38339298649865
 6 -3.71395490639064 -3.88209438493849  1.79849956295630
 8 -4.36950219031903 -4.27837457225723  2.82068073787379
 8 -2.32651432633263 -3.69295560086009  1.87805774497450
 6 -1.67071559365937 -4.09405449554955  3.18597302250225
 6  2.92277417021702 -2.65760093699370 -1.26334757885789
 6  3.96543031043104 -1.72506950805080 -0.75300083238324
 6  5.06447720312031 -1.44117098849885 -1.71420762236224
 6  5.19983396719672 -2.01152428712871 -3.02654963716372
 6  5.91286511111111 -0.29123677657766 -1.18332489098910
 6  7.31187988198820 -0.85935171727173 -0.73850058735874
 6  8.41297385768577  0.05604123872387 -0.59047752825283
 6  9.74320741014101 -0.62454937523752 -0.04346265196520
 6  9.67853536983698 -0.94930374507451  1.73779814861486
 6  10.77308963896390  0.60658551275128  0.03937877627763
 6  12.21650692119212 -0.06663535633563  0.29943825502550
 6  13.18055959855986  1.03071034573457  0.34830772917292
 6  14.55814214941494  0.53717699579958  0.34582924502450
 6  14.98092308040804 -0.12027430793079  1.67565748974897
 6  15.58357798619862  1.65569047104710  0.16514972027203
 6  16.89363884198420  1.12603782818282 -0.25030190409041
 6  17.98244779217922  2.19698688988899 -0.22931307810781
 6  19.36601880298030  1.90280877567757 -0.53003308700870
 6  19.65296509780978  1.08802423272327 -1.87479327052705
 6  20.30680784968497  2.95002642064206 -0.61783687958796
 1 -3.55016565486549  3.49702095309531  1.31878127982798
 1 -9.29699368186819  4.30795988108811 -0.28794242814281
 1 -10.09101159275928 -1.83775417471747 -0.70651347724772
 1 -2.27765028182818 -1.43210082788279  2.19212926122612
 1 -1.80976031463146  0.84263473967397  0.64552100550055
 1 -1.11005238893889  0.42257057145715  3.10525123622362
 1 -1.75838401230123  2.13368194459446  2.91465758355836
 1 -2.79564189668967  0.80210809610961  3.81817768686869
 1 -1.86079509980998 -2.06582785578558 -0.51740952775277
 1 -1.77315248424842 -0.56304777767777 -0.95384517531753
 1  0.16346434473447 -0.31586301960196  1.03872973817382
 1 -0.03254697449745 -2.40237657145715  1.34009424152415
 1 -3.36704123452345  5.70016784468447  0.35472042974297
 1 -4.78748902950295  6.76312898879888  0.74587149324933
 1 -3.82250327852785  5.43935289628963  2.07136490879088
 1 -8.16563957805781  6.17357246644664 -0.90942731853185
 1 -12.24813436703670 -1.23661452895289 -0.57928235543554
 1 -13.07739395439544  0.56353275307531 -1.72386002240224
 1 -12.69108693179318 -1.23048516391639 -3.25536265336534
 1 -11.91668863266327  0.14551197269727 -3.46017818731873
 1 -10.95854267866787 -1.31273459045905 -3.14252085948595
 1 -8.52698188148815 -4.81944850045004 -2.07423965196520
 1 -8.04073928852885 -5.91294130673067 -0.23557320922092
 1 -9.96650393039304 -4.52611457265727 -0.29418480898090
 1 -3.17531711311131 -3.65193891879188 -0.37957626442644
 1  3.19379099449945 -3.69419669346935 -1.35718143524352
 1  2.69462375117512 -2.44030994599460 -2.34614484978498
 1  3.78443577127713 -1.07810055845585 -0.02380877927793
 1  4.51434449144914 -1.81043451595160 -3.63157327232723
 1  6.28251182958296 -1.48863753915391 -3.63176440034003
 1  5.48563239063906 -3.51383399769977 -2.95822000580058
 1  6.34048447034703  0.36465180258026 -2.28249086628663
 1  5.57574268366837  0.30182573037304 -0.54031829522952
 1  7.30304148304830 -1.62667086418642 -0.13960223862386
 1  7.36464186258626 -1.81898068836884 -1.29454893079308
 1  8.52932506390639  0.60002059685969 -1.57923070837084
 1  8.01523002110211  0.86109129732973  0.08730443884388
 1  10.28585103220322 -1.53362080578058 -0.59126628422842
 1  8.78352059635964 -1.52595141084108  2.00879924072407
 1  10.45583165256526 -1.48652253345334  1.99389128052805
 1  9.47425063666367 -0.05120634303430  2.53214451955196
 1  10.59047268506851  0.89028178807881 -1.17176434803480
 1  10.66594634123412  1.58026690229023  0.65205908620862
 1  11.98929647184718 -0.86419885938594  1.29526320962096
 1  12.71238339233923 -0.83573179377938 -0.45976897439744
 1  13.05528039803981  1.14984452945295 -0.79570847544755
 1  13.01312335713571  2.12991724302430  1.20673646304630
 1  14.73839526532653 -0.41935945194519 -0.59059725092509
 1  14.99733963386339  0.40168056355636  2.61857463046305
 1  14.48901617511751 -1.12483015491549  1.80057755585559
 1  16.03903093619362 -0.42199578267827  1.63460993869387
 1  15.19562069696970  2.50199019241924 -0.65302527722772
 1  15.62442647524752  2.42192172767277  0.89796812001200
 1  17.11644295939594  0.64308747934794  0.81715190189019
 1  16.75763328752875  0.52227039623962 -1.03309468686869
 1  17.66121112821282  2.96450299809981 -0.99411239953995
 1  17.77855785188519  2.90562446934694  1.12203887438744
 1  19.80268282948295  1.30274312051205  0.06360971177118
 1  19.29871818981898  1.76274132373237 -2.74588671387139
 1  20.47077136713671  0.75439363756376 -2.47762189558956
 1  18.82233496049605  0.29450173177318 -1.84617269196920
 1  20.65126190479048  3.37331691079108  0.54745549914991
 1  21.22701044134413  2.56540312301230 -0.86268898389839
 1  19.86607326022602  3.57390487768777 -1.26043083938394
 1 -0.95339096419642 -4.78794154355436  3.15011335933593
 1 -2.40116979797980 -4.64212148584858  3.52367300390039
 1 -1.80625463876388 -2.88654713181318  4.02351650485048
 8 -11.33702207650765  4.17833263246325 -1.00438225192519
 1 -12.51570208170817  2.69174041414141 -1.33141374637464

