%nproc=4
%Mem=4GB
# td=(NStates=1) iop(3/107=0140000000,3/108=0140000000) iop(3/107=0140000000,3/108=0140000000) CAM-B3LYP/6-31G(d,p) 

TD

0 1
12 -5.47614912151215  1.25992086638664  0.10106871207121
 6 -4.99649003620362 -2.05670413371337 -0.34885175197520
 6 -3.20099888898890  1.13713399819982  2.69209458275828
 6 -6.00610940664066  4.50145340954095  0.64293450225022
 6 -7.86769253635364  1.23960481118112 -2.44758243174317
 7 -4.34390864416442 -0.30914910671067  1.14816615541554
 6 -4.25019854735474 -1.70898460006001  0.62933528312831
 6 -3.20337346184618 -2.42194549734973  1.56785114881488
 6 -2.90473364436444 -1.43385627652765  2.68205476157616
 6 -3.54008143554355 -0.12721534923492  2.11495608080808
 6 -3.65841888128813 -1.80526396779678  3.92127482688269
 6 -1.98482367556756 -2.70160757005701  0.66946225172517
 6 -1.03645528902890 -3.59931751235124  1.46915050305031
 6  0.25789088958896 -4.02663650435044  0.71411960666067
 8  0.55591565586559 -3.56981429502950 -0.45131136533653
 8  1.01571841754175 -4.78551816911691  1.36001060836084
 7 -4.75082589888989  2.52333171007101  1.45750598229823
 6 -3.81030312011201  2.34590201190119  2.46019662296230
 6 -3.57188669236924  3.56870537273727  3.12151270747075
 6 -4.37816836953695  4.53391491979198  2.51428069936994
 6 -5.17864396859686  3.83160125532553  1.47089318161816
 6 -2.59867523062306  3.73244061986199  4.22525671507151
 6 -4.33076960756076  5.92804022452245  2.97947745254526
 8 -3.82532258025803  6.34360224822482  3.90496439633963
 7 -6.84260806070607  2.69708960476048 -0.72860451675168
 6 -6.76613932873287  3.97250686788679 -0.39662135083508
 6 -7.77319250565056  4.66577330213021 -1.21474558405841
 6 -8.29996945024502  3.65675260516052 -2.09122806720672
 6 -7.66518540904090  2.45417142594259 -1.83241918841884
 6 -8.11923491439144  6.02327223662366 -1.12733224202420
 6 -9.37396175947595  3.90536093429343 -3.14883951675167
 6 -8.72437389108911  4.02655080128013 -4.56839324332433
 7 -6.26500491949195 -0.06259127682768 -1.16511160316032
 6 -7.30829035863586  0.00374430583058 -2.15673988468847
 6 -7.58107561476148 -1.34324602820282 -2.76171869446945
 6 -6.63683323212321 -2.09945951775177 -2.00298646434644
 6 -5.89113752915291 -1.34055762086209 -1.16611274167417
 6 -8.52027748554855 -1.64962508850885 -3.91539843604360
 6 -6.16028969606961 -3.49305488938894 -2.00235379047905
 8 -6.59425382088209 -4.45003270167017 -2.57580384548455
 6 -5.03201176327633 -3.53790184278428 -0.86955927572757
 6 -5.24429190659066 -4.60320576167617  0.10926459825983
 8 -5.67616338793879 -4.36449545764576  1.23045940934093
 8 -4.98450814901490 -5.84117531393139 -0.33955710031003
 6 -5.43073063726373 -6.97834968826883  0.53293512331233
 6  2.23028400160016 -5.13400452065207  0.71320527492749
 6  3.38966350135014 -4.12335249614962  1.02995089488949
 6  3.92743213341334 -3.29316218631863  0.22622625762576
 6  3.52904724362436 -3.10915585688569 -1.26817632213221
 6  5.09352577837784 -2.46467151475148  0.62265606440644
 6  6.35960083138314 -2.64723764896490  0.03458492589259
 6  7.43537886148615 -1.84745410091009  0.58654434493449
 6  8.81472229352935 -1.94038887248725 -0.03812159465947
 6  9.38910529222922 -3.27622826322632  0.36903344564456
 6  9.78401898099810 -0.76316655405541  0.50817333283328
 6  11.22870017241724 -0.82807241414141 -0.23778254445445
 6  12.08789647824782  0.40999562706271  0.25890273787379
 6  13.40860331613161  0.52765763566357 -0.58968373157316
 6  14.24633293229323 -0.75791519411941 -0.47285143604360
 6  14.11954789438944  1.74501067266727 -0.10990024482448
 6  15.22896708710871  2.21855988418842 -1.15873086808681
 6  15.93479606400640  3.52939769256926 -0.62508312151215
 6  17.15082033113312  4.03844168576858 -1.43342727792779
 6  16.83294588428843  4.14519941164116 -2.94564678887889
 6  17.48003740984098  5.32640790609061 -0.74805426432643
 1 -2.54070979377938  0.98818309370937  3.44311477987799
 1 -6.33055103390339  5.56625200560056  0.78974796649665
 1 -8.93077348454845  1.13656395929593 -2.99473495229523
 1 -3.47218828362836 -3.29797511291129  2.22624068486849
 1 -1.86664378827883 -1.14208186978698  2.87684896099610
 1 -3.04598437753775 -2.93111627282728  4.27668121212121
 1 -3.39928072077208 -1.16192609700970  4.64262629242924
 1 -4.69231174287429 -1.97270635153515  3.72861681218122
 1 -2.12173748744875 -3.14860437773777 -0.12657328112811
 1 -1.35477330973097 -1.73401251755175  0.47345546714672
 1 -0.82170760426043 -3.11019231483148  2.40088430713071
 1 -1.54248897049705 -4.40431756295630  1.96517831583158
 1 -1.49905001880188  3.25511503590359  3.83537944764476
 1 -2.50465145524552  4.78136534253425  4.68878513621362
 1 -2.66568956395640  3.20072106960696  5.25146015201520
 1 -4.90008307220722  6.72893708810881  2.18817413881388
 1 -10.13046217971797  3.13509416651665 -3.35226847854785
 1 -10.07910870877088  4.71847569166917 -2.84236452715272
 1 -9.56704650445045  4.45359377337734 -5.18645384768477
 1 -8.09076858625863  5.08047779317932 -4.43014296929693
 1 -8.11763161216122  3.07322668146815 -4.88131805660566
 1 -8.05829341894189 -1.03632417531753 -4.92705370367037
 1 -8.22822380538054 -2.62522592769277 -4.16722935993599
 1 -9.53126320582058 -1.41407823122312 -3.72082898959896
 1 -4.06908426582658 -3.60912573917392 -1.49346263316332
 1  2.39410054305431 -6.12845078807881  1.16023198009801
 1  2.03754449784978 -5.29132610871087 -0.37605105470547
 1  3.68361048334833 -4.04311359315932  2.01011601920192
 1  2.61185617231723 -3.58136375747575 -1.23174571557156
 1  3.54356897019702 -2.07342090139014 -1.62930540104010
 1  4.22180435443544 -3.73493722292229 -2.12179110501050
 1  4.80157019791979 -1.52030845484548  0.46389827332733
 1  5.25971449874988 -2.68456008840884  1.71266614691469
 1  6.54271179787979 -3.67785097719772  0.02407029102910
 1  6.11462162256226 -2.47224483348335 -1.04426502200220
 1  7.22148107940794 -0.82526585168517  0.70769801530153
 1  7.49957206010601 -2.05945252835283  1.68179256455646
 1  8.69229333863386 -1.92939121432143 -1.11136447454745
 1  8.82909742844284 -3.99390816221622 -0.25755954835484
 1  10.37571691249125 -3.42103630573057  0.10111999849985
 1  9.43450251165116 -3.29924101560156  1.59053949664967
 1  9.35447459805981  0.15192091829183  0.36366172997300
 1  9.83995409290929 -0.88903543744374  1.63225276527653
 1  11.80557569886989 -1.77238727062706  0.22050767756776
 1  11.19794588128813 -0.98220112501250 -1.36537787138714
 1  11.65893692719272  1.25389981918192  0.29427987278728
 1  12.40129495279528  0.01916310771077  1.23739201940194
 1  13.07341414211421  0.57240167246725 -1.65509774847485
 1  14.50463980228023 -0.97211542424242  0.69194487448745
 1  13.73789936093609 -1.72381139743974 -0.63003932543254
 1  15.12687367576758 -0.75156835503550 -1.04984187668767
 1  13.44047224142414  2.69131375047505 -0.03067485518552
 1  14.55278197849785  1.61119140834083  1.01550876477648
 1  16.09643129892989  1.56251486418642 -1.27826431713171
 1  14.80233581698170  2.28615252805281 -2.09446082578258
 1  15.10316172077208  4.42136751475148 -0.49049104720472
 1  16.08155092519252  3.26559320072007  0.46917681808181
 1  17.89051273267327  3.37939943114311 -1.27520660026003
 1  15.99801052145214  5.02262879177918 -3.28193055285529
 1  17.87481340484048  4.14942445574557 -3.60078468356836
 1  16.33251345154515  3.26311738173817 -3.37589562416242
 1  17.80038608580858  5.06889810731073  0.29542120632063
 1  18.50883840614062  5.65996014821482 -1.24204111851185
 1  16.71892344324433  6.14802430553055 -0.80073413471347
 1 -4.92922822422242 -7.79883931703170 -0.00048358605861
 1 -6.44654908520852 -7.02529961656166  0.46705021252125
 1 -4.75976414501450 -6.87162873847385  1.28335279187919
 8 -7.61508910051005  6.83767026782678 -0.46760454445445
 1 -9.19359765686569  6.35006065096510 -1.77949363216322

