%nproc=4
%Mem=2GB
# td=(NStates=1) iop(3/107=0140000000,3/108=0140000000) iop(3/107=0140000000,3/108=0140000000) CAM-B3LYP/6-31G(d,p) 

TD

0 1
12 -6.73646621872187  0.66069521362136  0.06588420792079
 6 -4.42897000350035 -2.06734515631563  0.42599287628763
 6 -4.38732054745474  2.73110474357436  1.05331821342134
 6 -8.98998170287029  3.37476150025002 -0.31547104880488
 6 -9.28287638523853 -1.70921395099510 -0.77741780048005
 7 -4.80985605750575  0.33081247894790  0.51906093819382
 6 -4.00043730933093 -0.82067177397740  0.65775633103310
 6 -2.48811222982298 -0.57188894809481  1.11591365366537
 6 -2.50555052085209  0.91523167196720  1.44018618111811
 6 -3.93562982588259  1.40740082528253  1.01493626832683
 6 -2.32710899659966  1.28591038693869  2.71026558935894
 6 -1.63772252065207 -0.78565112851285 -0.00371904560456
 6 -0.26116423472347 -1.28902060866087  0.40958003150315
 6  0.71224230343034 -1.45332256915692 -0.73352152595259
 8  0.53239330743074 -0.71188380088009 -1.68815980618062
 8  1.68733902050205 -2.36460675927593 -0.44930985348535
 7 -6.71722346454645  2.52782315231523  0.53319706760676
 6 -5.50884144504450  3.21452009520952  0.72732902910291
 6 -5.97890210541054  4.74991467626763  0.86449131773177
 6 -7.27641835523552  5.00247633813381  0.57214379767977
 6 -7.76762846674668  3.53876268466847  0.19976480788079
 6 -5.14256917721772  5.84549197969797  1.45179284728473
 6 -8.00444200550055  6.24717163726373  0.36477600130013
 8 -7.49847376357636  7.17517913451345  0.56221407820782
 7 -8.69248280178018  0.75153601280128 -0.50884353345335
 6 -9.48300197259726  1.90270500580058 -0.67782883518352
 6 -10.81649828012801  1.60285015611561 -1.00235601680168
 6 -11.01559591709171  0.10292119651965 -1.03710456595660
 6 -9.67223888718872 -0.32360052325233 -0.76165824252425
 6 -11.94743151845184  2.65304149724972 -1.16987163796380
 6 -12.22002512301230 -0.70871443374337 -1.36995512921292
 6 -12.11383824592459 -1.11245341054105 -2.93595639033903
 7 -6.93301978487849 -1.39285184648465 -0.07841048554855
 6 -7.93090575217522 -2.23840383708371 -0.52267546554655
 6 -7.61861944704471 -3.80181750415041 -0.46851786188619
 6 -6.21661728292829 -3.60679984088409 -0.10769903050305
 6 -5.88902519121912 -2.25219403390339  0.02747893219322
 6 -8.40709923342334 -4.95766314411441 -0.90041285718572
 6 -5.07686389088909 -4.30066586468647 -0.04879685398540
 8 -4.88953070177018 -5.51955249354936 -0.08787828122812
 6 -3.97600132553255 -3.39967052625263  0.56460110731073
 6 -3.57861137203720 -3.84847102260226  1.81555126812681
 8 -4.21671691179118 -4.02970970577058  2.91701037083708
 8 -2.18097977287729 -3.73641994729473  1.76965690489049
 6 -1.58159668176818 -3.94367945804580  3.10172459765977
 6  2.95296718951895 -2.39850502740274 -1.21473271737174
 6  4.08869263666367 -1.56149315041504 -0.90013554585459
 6  5.15339609500950 -1.11135800720072 -1.56258245984598
 6  5.27070105390539 -1.45341847654765 -2.87097407960796
 6  6.15409923452345 -0.07303495639564 -1.09574613311331
 6  7.54807350135014 -0.84915069716972 -0.73920065736574
 6  8.54816737703770  0.33006864146415 -0.40515899639964
 6  9.89832292169217 -0.32192911321132  0.23987568186819
 6  9.90514803110311 -0.79576839153915  1.89547391619162
 6  11.09034136413641  0.79275412961296 -0.12723788538854
 6  12.31814708520852  0.16220752795280  0.11547985918592
 6  13.63078462106211  1.06679395409541  0.10409330773077
 6  15.03641997719772  0.44380765886589  0.35566022812281
 6  15.11915690379038 -0.03393567406741  1.84168409240924
 6  16.15121474987499  1.28593349534953 -0.15364215891589
 6  17.34183366146615  0.79640486488649 -0.30010688458846
 6  18.55688523592359  1.65891308250825 -0.51097124392439
 6  19.99719192029203  1.12771126592659 -0.66726681038104
 6  20.08223802510251  0.24510994129413 -1.75498128932893
 6  21.06355352425243  2.29157057505751 -0.52198729462946
 1 -3.58543918221822  3.52360361136114  1.46432583428343
 1 -9.70230421292129  4.24790387548755 -0.22229586348635
 1 -10.13079557115712 -2.51593199249925 -0.97640046594659
 1 -2.24135665246525 -1.12743036083608  1.93448349664967
 1 -1.90919025762576  1.42806328252825  0.94158061146115
 1 -1.22969435313531  0.81901021542154  2.94823553465347
 1 -2.73996217011701  2.41769034543454  2.87424354215422
 1 -3.00958329082908  0.65789367466747  3.09008487758776
 1 -1.69453847414741 -1.72157343034303 -0.60514830163016
 1 -1.64737990699070 -0.22856432933293 -0.82982277307731
 1  0.17507550585059 -0.29876130943094  0.87621348654866
 1  0.01732801300130 -2.22957929172917  1.14538477057706
 1 -4.29078360876087  5.57713554145415  0.97118207590759
 1 -5.84441472207221  6.92541521742174  1.30145705180518
 1 -4.94947597579758  6.01670063106311  2.54737250955096
 1 -8.83987700180018  6.08493360256026  0.06671029522952
 1 -12.51016056965697 -1.54292516001600 -0.69181360856086
 1 -13.32774898989899  0.01112751255126 -1.36215385178518
 1 -12.80095791889189 -1.50389250465047 -2.96018313541354
 1 -12.15126209000900 -0.42538511701170 -3.56343851335133
 1 -11.52293911831183 -1.92957627462746 -3.29365597299730
 1 -8.85057424072407 -4.76222277787779 -2.09787201520152
 1 -7.94377959255926 -5.85169518211821 -0.78990864276428
 1 -9.44923220322032 -5.05755771697170 -0.05871126162616
 1 -3.44988456985699 -3.52625635053505 -0.24266257305731
 1  3.09401101650165 -3.56433370717072 -1.16655237233723
 1  2.41100538933893 -2.16750266526653 -2.30667090239024
 1  3.77797512521252 -1.02456520492049  0.16670027162716
 1  4.36808986598660 -1.16678015051505 -3.07450756575658
 1  6.26997057545755 -1.06197487288729 -3.36557778167817
 1  5.33447727512751 -2.60793340764076 -2.88521270507051
 1  6.29162958485849  0.68060339773977 -1.65496811401140
 1  5.74488959835984  0.41428697649765 -0.06567083048305
 1  7.37625880478048 -1.40999919701970  0.10916263786379
 1  7.87753315171517 -1.39791858215822 -1.59586906280628
 1  8.77763989538954  1.22566316111611 -1.19843262856286
 1  7.95015351345135  1.01358654685469  0.48285399379938
 1  10.05090753785379 -1.63411085478548 -0.33122027962796
 1  9.50874311861186 -1.78330714641464  2.02618097889789
 1  11.12704877427743 -1.09426330753075  2.70309220062006
 1  8.83854706630663 -0.09495071747175  2.62199350445045
 1  10.71567520532053  0.99195195509551 -1.30866803840384
 1  10.77422716931693  1.52248112371237  0.74727860816082
 1  12.38098564076408 -0.12720516001600  0.96046973027303
 1  12.37934008800880 -0.59883810441044 -0.61149414691469
 1  13.43580845084509  1.86256580158016 -0.77332623722372
 1  13.31306335113511  1.67059131043104  0.92838862826283
 1  15.14240566636664 -0.42083959996000 -0.34981317251725
 1  14.77324722462246  0.80284067956796  2.84502727572757
 1  14.92999027252725 -0.96139381128113  1.48883638173817
 1  16.26633366646665  0.21374779167917  2.07715419311931
 1  16.09000013491349  1.65279527292729 -1.13905388008801
 1  16.42209624222422  2.06210574607461  0.37784610781078
 1  17.69404071917192  0.57681085168517  0.63414360106011
 1  17.17948547274727  0.07787595679568 -0.98238961636164
 1  18.42995800290029  2.37861440924092 -1.51041402970297
 1  18.46975697179718  2.28716262316232  0.70240691119112
 1  20.21787434863487  0.70610345654565  0.50610396119612
 1  19.59760807880788  0.72647769736974 -2.98771089628963
 1  21.03299758975897 -0.03413521532153 -1.96162029542954
 1  19.70472319931993 -0.73217093549355 -1.61325940064006
 1  21.03679045764576  2.90374995409541  0.36575732933293
 1  22.00415815611561  2.11951853455346 -0.84978769376938
 1  21.02624927782778  2.68055554275428 -1.53886868316832
 1 -0.76419204430443 -4.53546629602960  2.95238358635864
 1 -2.10796047704770 -4.44981225492549  3.79446008260826
 1 -0.98097211051105 -2.79054753185318  3.34466862006201
 8 -11.52556093039304  3.79066386558656 -1.27341915561556
 1 -13.43868437993799  2.16032727282728 -1.06645725072507

