%nproc=4
%Mem=2GB
# td=(NStates=1) iop(3/107=0140000000,3/108=0140000000) iop(3/107=0140000000,3/108=0140000000) CAM-B3LYP/6-31G(d,p) 

TD

0 1
12 -6.77944051615162  0.51158030213021  0.07744536403640
 6 -4.39299640614061 -2.08054647644764  0.44311458845885
 6 -4.32442425782578  2.83958559165917  1.12299518111811
 6 -9.12813551825183  3.18943296739674 -0.06977647934793
 6 -9.26546464406441 -1.63542657225723 -0.88575863456346
 7 -4.67568264016402  0.44851424912491  0.65779481158116
 6 -3.92293955955596 -0.81064077087709  0.71917247264726
 6 -2.54841826042604 -0.56750851005100  1.17342940524052
 6 -2.45185515131513  0.91615176397640  1.56542870537054
 6 -3.80395665856586  1.46275636083608  1.15267004170417
 6 -2.20456674237424  1.12725452135214  3.01915647844784
 6 -1.60991974037404 -0.96133869726973 -0.16770544424442
 6 -0.07114523282328 -1.14504621122112  0.43140221372137
 6  0.77649872907291 -1.42223946084608 -0.68166634043404
 8  0.88102817091709 -1.09428204070407 -1.81009199939994
 8  1.86375666226623 -2.18525882448245 -0.13910883338334
 7 -6.69628137033703  2.57778814881488  0.41308505640564
 6 -5.65938649954995  3.29790843404340  0.84120041624162
 6 -5.97511172637264  4.71985166996700  1.06219108770877
 6 -7.17963867726773  4.81197728822882  0.53743032633263
 6 -7.83720542444244  3.52695150355036  0.25078991039104
 6 -4.88465338563856  5.68651608210821  1.20327799579958
 6 -7.97363892519252  6.10974789488949  0.41735125882588
 8 -7.45915983218322  7.19332094869487  0.55470332713271
 7 -8.76905045854585  0.75552641184118 -0.43431608070807
 6 -9.48865253765377  1.82490722602260 -0.55891694399440
 6 -10.75215184548455  1.67901777287729 -0.99614539573957
 6 -10.92515687318732  0.18083898829883 -1.12090294579458
 6 -9.60592225552555 -0.30519868306831 -0.80764284098410
 6 -11.91085786108611  2.64013020612061 -1.18284293509351
 6 -12.05897901840184 -0.53894745704570 -1.66107424112411
 6 -11.94294115621562 -0.70312247744774 -3.06845964066407
 7 -6.87795427832783 -1.34306686798680 -0.18482112661266
 6 -7.95675833743374 -2.06292628932893 -0.54305750375037
 6 -7.43577116221622 -3.46637395979598 -0.68148915901590
 6 -6.21125674687469 -3.57266642754275 -0.30212847344735
 6 -5.71929821852185 -2.13902271677168 -0.04684850055005
 6 -8.28309683318332 -4.50609798759876 -1.01859467536754
 6 -5.05459166366637 -4.39839563766377  0.03781180688069
 8 -4.99085083378338 -5.57504804310431 -0.08096759015902
 6 -3.83631735713571 -3.49107966716672  0.45569021622162
 6 -3.41451496239624 -3.82125830133013  1.93658337133713
 8 -3.93130837093709 -3.96119285408541  2.92734140394039
 8 -2.09014068896890 -3.65667197249725  1.80842078127813
 6 -1.33432195429543 -4.22526761686169  2.85027945314531
 6  2.97949984278428 -2.53070824772477 -1.03109435353535
 6  3.95230899829983 -1.42075907700770 -0.76389192149215
 6  4.96364712011201 -1.20938781018102 -1.52959916151615
 6  5.23724770857086 -1.90352348704870 -2.78812579477948
 6  6.17176100070007 -0.17454510741074 -1.31244780328033
 6  7.35776447044704 -0.93253903600360 -0.70924766206621
 6  8.47906046634663  0.20286592119212 -0.34669314981498
 6  9.86185927532753 -0.38018493879388  0.31304299859986
 6  9.49070658695870 -0.88250706540654  1.64203857265727
 6  10.83267559755976  0.69711456565657  0.13921876027603
 6  12.21015628612861  0.07386869406941  0.23297160836084
 6  13.32456399899990  1.15127240194019  0.00812371077108
 6  14.75879221442144  0.47630090819082  0.35677033913391
 6  14.82087707580758  0.19924764426443  1.90065998999900
 6  15.89153878227823  1.47133203520352 -0.09957675237524
 6  17.35757523562356  0.79750497489749 -0.05360223412341
 6  18.45408495589559  1.77181437263726 -0.79066921372137
 6  19.89158135923592  1.14812330713071 -0.70198028172817
 6  19.94464426572657  0.05935136543654 -1.70209600080008
 6  20.85703287218722  2.38210962896290 -0.79558465436544
 1 -3.66020665896590  3.55324657565757  1.47482688438844
 1 -9.73820780328033  3.82730181528153 -0.29034266816682
 1 -10.02917540914091 -2.46154655395540 -1.16389921582158
 1 -2.22773529032903 -1.47227484528453  1.80107015531553
 1 -1.56075541414141  1.36126660286028  0.97631408480848
 1 -1.02667405110511  0.64857317171717  3.66125683678368
 1 -2.66051422532253  2.59887846424642  3.07346346414641
 1 -2.99784211671167  0.57142502780278  3.87278314741474
 1 -2.07565658595859 -1.83560483348335 -0.41245903270327
 1 -1.97590275927593  0.07295582268227 -0.81752154295430
 1  0.23311130943094 -0.42106353965397  1.04583044824483
 1 -0.27672139193919 -2.13250958475848  1.00330056215621
 1 -4.21518604900490  5.86974480238024 -0.04719976227623
 1 -5.17710799139914  6.71938461436144  1.27077398349835
 1 -4.27429845804580  5.50073903490349  2.24374214651465
 1 -9.08828184228423  6.05923103230323  0.06250987518752
 1 -11.85300485408541 -1.78296916441644 -1.46449087628763
 1 -12.89386560156016  0.07068346814681 -1.20259789618962
 1 -12.72852067516752 -1.50761287668767 -3.26767388448845
 1 -12.08685564936494  0.20910833233323 -3.71781395089509
 1 -11.06138296269627 -1.30863418041804 -3.48332493989399
 1 -8.63957314061406 -4.30030658625863 -2.17123935193519
 1 -7.67278249284928 -5.45359537213721 -1.11477112901290
 1 -9.20187746774678 -4.75531749294930 -0.12216760726073
 1 -3.20053963536354 -3.73504722962296 -0.24374268106811
 1  3.34523613901390 -3.46177345114512 -0.56855257235724
 1  2.47030131893189 -2.47209312431243 -2.14989522482248
 1  3.77019434713471 -0.96576932533253  0.22638624022402
 1  4.39789284628463 -1.90291376387639 -3.51128124312431
 1  6.26288986738674 -1.59297797319732 -3.63160438433843
 1  5.48770259765977 -2.90699331363136 -2.56703088688869
 1  6.42819324122412  0.34805014241424 -2.28485110231023
 1  5.80143525292529  0.68005355315532 -0.87966222962296
 1  7.17396857575758 -1.46059425652565  0.13084480608061
 1  7.94236963536354 -1.34000279057906 -1.66572604850485
 1  8.96223835523552  0.83509410421042 -1.26063884918492
 1  8.20998949704970  0.91477666586659  0.31271698009801
 1  9.99275172227223 -1.26511395509551 -0.33460061766177
 1  8.37161940624062 -1.46794561026103  1.86898525932593
 1  10.15404147354736 -1.78054193539354  1.73884577597760
 1  9.77507071867187 -0.14976619901990  2.27149845494549
 1  11.01180481828183  1.22936569646965 -1.18697586918692
 1  10.29958970557056  1.72969184478448  0.84733861416142
 1  12.37240478267827 -0.63885632513251  0.91354503780378
 1  12.28749090309031 -0.81882010261026 -0.61842483998400
 1  13.31121599159916  1.60395994099410 -0.87153605820582
 1  13.52757480228023  2.02459671097110  0.76333212261226
 1  14.75466689248925 -0.48757627362736 -0.21972016321632
 1  15.20431033093309  1.51647204270427  2.39150192319232
 1  13.97000427392739 -0.43523119501950  2.50812831093109
 1  15.71561859495950 -0.32940652375238  1.97322380008001
 1  15.82215335023502  1.58196819021902 -1.44615459015902
 1  15.90169420202020  2.55334486998700  0.37637596079608
 1  17.61846316141614  0.50014318491849  1.40890107680768
 1  17.38856638083808 -0.13412524332433 -0.63521489888989
 1  18.31659666676668  2.36783333113311 -1.97863085138514
 1  18.15706570267027  2.84787869476948 -0.01954528402840
 1  20.18238079927993  0.71749459565957  0.18877222802280
 1  19.97922624062406  0.33438848844885 -2.72768489368937
 1  20.89536382638264 -0.28392019381938 -1.82151628502850
 1  19.57982070907091 -0.95423314171417 -1.81174924962496
 1  20.64989176777678  3.09748932803280  0.12350310391039
 1  21.79634737503751  1.65290187288729 -0.72340505550555
 1  20.88340499339934  3.11604909210921 -1.71359615591559
 1 -0.48932455755576 -3.92352510191019  2.77723607160716
 1 -1.54573425442544 -5.31452872657266  3.09945058165817
 1 -1.96458047134714 -3.60266874397440  3.74081823502350
 8 -11.90933930823082  3.95995079427943 -1.02828464216422
 1 -12.75955646714672  2.28049929002900 -1.54189479447945

