%nproc=4
%Mem=4GB
# td=(NStates=1) iop(3/107=0140000000,3/108=0140000000) iop(3/107=0140000000,3/108=0140000000) CAM-B3LYP/6-31G(d,p) 

TD

0 1
12 -5.61477298389839  1.14494936923692  0.18738734393439
 6 -5.07819820702070 -2.14599306260626 -0.23336020282028
 6 -3.39108789788979  1.07193747854785  2.76960233353335
 6 -6.14198299399940  4.46032929712971  0.62935314411441
 6 -7.98676444354435  1.15695654635464 -2.35377305080508
 7 -4.33965821912191 -0.34148234003400  1.08262960176018
 6 -4.31794532203220 -1.60040374197420  0.71895424502450
 6 -3.29873299779978 -2.41356465926593  1.47152151585159
 6 -3.06907007800780 -1.48182107300730  2.74652120822082
 6 -3.64991241864186 -0.17312994069407  2.20359494469447
 6 -3.60014305370537 -1.87279072047205  4.00536323572357
 6 -1.95267046024602 -2.74647205650565  0.67749305480548
 6 -1.00496213971397 -3.65226280688069  1.42122571057106
 6  0.24742984348435 -3.80366420712071  0.66158435313531
 8  0.51628169246925 -3.34348166176618 -0.44253048724872
 8  1.01756860256026 -4.77719733703370  1.24854946224622
 7 -4.88665948224823  2.54466384328433  1.51240147184718
 6 -3.97127921772177  2.34292171387139  2.46204680798080
 6 -3.71553105680568  3.56618512071207  3.25935649184918
 6 -4.51023157585759  4.51930345864586  2.59912918421842
 6 -5.21552765696570  3.89665776097610  1.46015210751075
 6 -2.75276063916392  3.76440381618162  4.31576576597660
 6 -4.42351888248825  5.97014443494349  2.84940444524452
 8 -3.74888493649365  6.52985087308731  3.71419531943194
 7 -6.81093489338934  2.58166806260626 -0.73791544784478
 6 -6.83025574037404  3.90419003620362 -0.41138282698270
 6 -7.80263544994499  4.63495021982198 -1.30016412591259
 6 -8.29541899519952  3.63196012591259 -2.09205815021502
 6 -7.67861675217522  2.36425243404340 -1.80120606710671
 6 -8.17264025492549  6.02089199859986 -1.24322383118312
 6 -9.33240760406041  3.85141553975398 -3.19212384518452
 6 -8.64810626432643  4.13203134933493 -4.51565796979698
 7 -6.34078249724972 -0.19858487618762 -1.08583367536754
 6 -7.32400192979298  0.00144407580758 -2.11662587328733
 6 -7.60534804200420 -1.31507321092109 -2.71669419201920
 6 -6.68845839463946 -2.19643921572157 -2.06098226392639
 6 -5.92897131253125 -1.48907247234723 -1.12183831423142
 6 -8.51564702250225 -1.63556368236824 -3.83886078227823
 6 -6.28021168826883 -3.66361194509451 -2.00206376147615
 8 -6.62327672317232 -4.61929962836284 -2.50761702680268
 6 -5.15107366946695 -3.55852390499050 -0.85485780558056
 6 -5.54640211761176 -4.63159860096010  0.16922059385939
 8 -6.10204597619762 -4.38942795089509  1.29822618601860
 8 -5.14832453065307 -5.89468066446645 -0.31619476407641
 6 -5.53591115531553 -6.91370322362236  0.65029685948595
 6  2.31110208340834 -5.01040216041604  0.47710166456646
 6  3.40982551755176 -4.01618177907791  0.94363226302630
 6  4.03119250945095 -3.12941581168117  0.09178281328133
 6  3.62249658855886 -2.99935487678768 -1.33931343584358
 6  5.14114053985399 -2.22290733833383  0.62021582038204
 6  6.48418328962896 -2.66860978617862  0.18146961436144
 6  7.58227355095510 -1.70513986948695  0.48975466596660
 6  8.94125494679468 -1.80701553515352 -0.19729751225122
 6  9.41415779747975 -3.30002064246425  0.12811935423542
 6  9.98059863896390 -0.79493973137314  0.39404191969197
 6  11.20469777217722 -0.71731133803380 -0.39960872707271
 6  12.02695038363836  0.48226285378538  0.07489433703370
 6  13.51443389918992  0.58777364726473 -0.75245000820082
 6  14.43812211121112 -0.60262966556656 -0.38319247014701
 6  14.29547548714871  1.80757692929293 -0.22858211301130
 6  15.55895008540854  2.06174420262026 -0.97956295129513
 6  16.13580616501650  3.42892764556456 -0.59625023822382
 6  17.45387063616362  3.83454129572957 -1.26290022522252
 6  17.26824941464146  4.13664855655565 -2.75987821202120
 6  18.03267267336734  5.13610887618762 -0.59882934183418
 1 -2.69195491829183  1.28560283568357  3.66988745714571
 1 -6.18720669946995  5.58635401580158  0.82829182088209
 1 -8.59602000920092  1.12316261916192 -3.12319779857986
 1 -3.75197626242624 -3.35111042644264  1.63143120392039
 1 -1.96531365526553 -1.42470013161316  2.74208548464846
 1 -2.81620139923992 -2.62590575177518  4.40772431643164
 1 -3.62078287098710 -1.15507541194119  4.90737276707671
 1 -4.66426893859386 -2.56902598349835  4.10117406790679
 1 -2.04348966266627 -3.12685220252025 -0.56831745554555
 1 -1.54026185858586 -1.65699481578158  0.42535065666567
 1 -0.82025745924592 -3.35819711531153  2.63877809650965
 1 -1.35834055565557 -4.82303943514351  1.40262206020602
 1 -1.69763987778778  3.51355087948795  4.00591650135013
 1 -2.80000099019902  4.85262246824682  4.60229648734874
 1 -2.70019301430143  3.24882588008801  5.23711871787179
 1 -5.04226729062906  6.63495769016902  2.10784610601060
 1 -9.83058219171917  2.83252390949095 -3.23817706940694
 1 -9.97478827672767  4.68716256035604 -3.05062535323532
 1 -9.37919771957196  4.38084649864986 -5.36438164046405
 1 -8.07303681308131  5.13779352475248 -4.45699565456546
 1 -7.93036288528853  3.40152951175118 -4.90281020582058
 1 -7.98115570517052 -1.24246478937894 -4.85307630593059
 1 -8.59954093709371 -2.70129353445345 -4.28167080408041
 1 -9.60083016251625 -1.38002482588259 -3.65066197289729
 1 -4.23446080348035 -3.84099892649265 -1.28081136803680
 1  2.79967110011001 -6.12651059405941  0.88540449734974
 1  2.01808255165517 -5.12280925702570 -0.59762321192119
 1  3.84517663996400 -4.07181646344635  1.94270927852785
 1  2.39097408410841 -2.96783240434043 -1.47098963996400
 1  3.72852746604661 -1.90245380468047 -1.56950942144214
 1  4.26631880588059 -3.39206293549355 -1.95003392929293
 1  4.93674371527153 -1.29469589358936  0.31077296079608
 1  5.05675420272027 -2.22150378277828  1.72223710401040
 1  7.02579010571057 -3.75909910201020  0.54275215921592
 1  6.56906706710671 -2.79640724972497 -0.92400299579958
 1  7.26561549284928 -0.70268359345935  0.47455470097010
 1  7.69437154005401 -1.85872245534553  1.66461084638464
 1  8.93661777107711 -1.88215649084908 -1.25302864096410
 1  8.81859637833783 -4.18084685608561 -0.38771256365637
 1  10.40685002580258 -3.42182638473847 -0.20538065156516
 1  9.46389545094509 -3.48127921942194  1.32615305800580
 1  9.55550470107011  0.23780950715071  0.40983634743474
 1  10.21247134463446 -0.99888642254225  1.32633217321732
 1  11.99135427672767 -1.62193222512251 -0.49722409560956
 1  11.19562564926493 -0.48998190309031 -1.68497983158316
 1  11.47472850635064  1.43335776497650 -0.24674422962296
 1  12.10977580088009  0.63974516591659  1.33055133533353
 1  13.29605640634063  0.56046047834783 -1.82489472817282
 1  14.39554889318932 -0.72936114881488  0.77260294029403
 1  13.87097266826683 -1.47695671197120 -0.80132645414541
 1  15.42150313871387 -0.39372257045705 -0.97706459895990
 1  13.61944013821382  2.53818843794379 -0.30482226992699
 1  14.63597029732973  1.62550283948395  0.85591280518052
 1  16.55797745354536  1.26586519921992 -0.79024551525153
 1  15.49169475287529  2.20270418321832 -2.22192357205721
 1  15.33615502010201  4.06963234123412 -0.75299729782978
 1  16.29344211431143  3.53028967036704  0.51478137853785
 1  18.23411709310931  3.10423191439144 -1.16346542614261
 1  16.35633635403540  4.91498802770277 -2.66015837563756
 1  18.24491041454145  4.50261977527753 -3.25985059015902
 1  16.80319051925192  3.15322639263926 -3.27120515511551
 1  18.12234828202820  4.92492370987099  0.47956962116212
 1  19.06394391669167  5.29793394559456 -1.03355026942694
 1  17.37884943584358  6.04277378047805 -0.73861792309231
 1 -5.25719102050205 -7.82310174327433  0.00450691299130
 1 -6.54065849614962 -6.85749283588359  0.81969547704770
 1 -4.91941010961096 -6.64335591119112  1.60224468106811
 8 -7.72232982458246  6.85328182898290 -0.45870365436544
 1 -8.93130142724272  6.27513315821582 -2.03456913971397

