%nproc=4
%Mem=4GB
# td=(NStates=1) iop(3/107=0140000000,3/108=0140000000) iop(3/107=0140000000,3/108=0140000000) CAM-B3LYP/6-31G(d,p) 

TD

0 1
12 -5.67594910151015  1.12913778807881  0.10460906610661
 6 -5.06016640384038 -2.20086855015502 -0.36206307310731
 6 -3.39335812491249  1.22698298309831  2.81783715701570
 6 -6.24083287898790  4.53080634483448  0.71525173397340
 6 -7.98503427052705  1.11921277197720 -2.43412108560856
 7 -4.35644989828983 -0.22780097189719  0.95960729952995
 6 -4.30822434993499 -1.58517221882188  0.69639198879888
 6 -3.20820394489449 -2.32590589338934  1.47132149584959
 6 -2.86902007300730 -1.33581647254725  2.60560711681168
 6 -3.61422885028503  0.00923829612961  2.11792637783778
 6 -3.29153219261926 -1.79211265266527  3.96391909130913
 6 -2.00625581878188 -2.66416382568257  0.58299360486049
 6 -0.95777742124212 -3.54855243584358  1.38739232723272
 6  0.22181728222822 -3.80282412311231  0.65483367806781
 8  0.52017208150815 -3.34090140374037 -0.42284851905190
 8  1.05698254395440 -4.65541515881588  1.20874548184818
 7 -4.99883069936994  2.55777515441544  1.56632686438644
 6 -3.99032112191219  2.41010843254325  2.46532713601360
 6 -3.77721722542254  3.69798830103010  3.24449500570057
 6 -4.64695524822482  4.65664719301930  2.68238751005101
 6 -5.33650975517552  3.90810890609061  1.58383447574757
 6 -2.83506886998700  3.83762113791379  4.40663485288529
 6 -4.78884541514151  5.92535995649565  3.01385088988899
 8 -4.13989403740374  6.57062495049505  3.83818771867187
 7 -6.99309310921092  2.62304220002000 -0.74759641594159
 6 -6.99001171597160  3.88094771197120 -0.35666735543554
 6 -8.02549773617362  4.60429715451545 -1.15936004550455
 6 -8.47838729202920  3.64271120102010 -2.07166611101110
 6 -7.80977986848685  2.40994700350035 -1.79510545704570
 6 -8.38086107700770  5.99791970137014 -1.10084959375938
 6 -9.45751011431143  3.68381878007801 -3.25548018081808
 6 -8.89160061376138  4.06210435663566 -4.56530293429343
 7 -6.34079249824982 -0.17892290999100 -1.17986307830783
 6 -7.32852238183818 -0.01979804840484 -2.14845905660566
 6 -7.49295680288029 -1.24298600220022 -2.75218774137414
 6 -6.66990653945394 -2.15616518831883 -2.05642180788079
 6 -6.01807022242224 -1.43662722782278 -1.06876300670067
 6 -8.51331678947895 -1.57198732473247 -3.84077097329733
 6 -6.21391505860586 -3.56744232813281 -2.06184974007401
 8 -6.55899029452945 -4.50094779317932 -2.70982724782478
 6 -5.10156871897190 -3.53872192479248 -0.88701102090209
 6 -5.34885236263626 -4.58898433953395  0.14262793459346
 8 -5.89172494409441 -4.46759576767677  1.19174553795380
 8 -5.09497919611961 -5.86467766416642 -0.38848199279928
 6 -5.47317488168817 -6.99035088838884  0.61410324012401
 6  2.37628860206021 -5.02672379257926  0.56196015041504
 6  3.51275581058106 -4.17001716261626  1.04392229202920
 6  4.07783717391739 -3.17947081718172  0.23713734873487
 6  3.81171551045104 -2.91405634693469 -1.28605811031103
 6  5.36404283008301 -2.35712075967597  0.75696949574957
 6  6.55979085038504 -2.68685161036104  0.10814228162816
 6  7.72202752635264 -1.65214456995700  0.44655034553455
 6  9.06560738203820 -1.93801863546355 -0.05772355485549
 6  9.56080246194620 -3.36707734813481  0.31654819711971
 6  9.97593817291729 -0.81894213161316  0.51055357085709
 6  11.41253855625563 -0.84569417631763 -0.23183194939494
 6  12.22732042064206  0.29447407490749  0.12566941454145
 6  13.53435589138914  0.42444731463146 -0.55533029622962
 6  14.47632593159316 -0.77290669326933 -0.39415356625663
 6  14.35461140074007  1.77072324392439 -0.26159541434143
 6  15.50860505090509  2.10818884708471 -1.11236623162316
 6  16.10342292669267  3.43534828762876 -0.74799541274127
 6  17.46066131523152  3.73646148774877 -1.33722765796580
 6  17.31831442114211  3.85250014171417 -2.90308253245325
 6  18.03345275137514  5.07322258755876 -0.77923738263826
 1 -2.78104382718272  1.16843111851185  3.57853832223222
 1 -6.35926390519052  5.65220060046005  0.93346233793379
 1 -8.66576698389839  1.21128143104311 -3.29734521332133
 1 -3.61308237303730 -3.27212252765277  1.93774183498350
 1 -1.81683880778078 -1.15210287188719  2.72653392949295
 1 -2.71446122522252 -2.67625078627863  4.40090363436344
 1 -3.05272606530653 -0.96020592499250  4.61027305710571
 1 -4.33751626332633 -1.89848892979298  4.02290624112411
 1 -2.14611992569257 -3.40894041134113 -0.25507613141314
 1 -1.43533136553655 -1.76580569686969 -0.02598447684768
 1 -0.76469190269027 -3.00254154975497  2.37681189988999
 1 -1.46060078167817 -4.54941207240724  1.37550934893489
 1 -1.82589270307031  3.45057458185819  4.03892980268027
 1 -2.73576456655666  4.97227443344334  4.51018727642764
 1 -3.05283827882788  3.32120311781178  5.22510751675167
 1 -5.36773983788379  6.42082627702770  2.28490381178118
 1 -10.18570770427043  2.79055971307131 -3.33564681638164
 1 -10.11238203610361  4.50615445954595 -2.83780407110711
 1 -9.67642744254425  3.80033844784478 -5.32230743304330
 1 -8.44543405280528  5.08754850025003 -4.59138909390939
 1 -8.08971882088209  3.26385574437444 -4.79639956475648
 1 -8.44945253485349 -1.07965850875088 -4.81768276657666
 1 -8.34185516851685 -2.68608201330133 -4.06299893689369
 1 -9.53714379387939 -1.25336215961596 -3.61304821152115
 1 -4.21724908230823 -3.97521234783478 -1.34969825672567
 1  2.58751988498850 -6.02908085108511  0.72294825172517
 1  2.34465520892089 -4.96412338843884 -0.57488093769377
 1  3.91519364166417 -4.20077935973597  2.11484649224923
 1  2.81604659135914 -3.44919054015402 -1.63863640464046
 1  3.86599121242124 -1.80723428272827 -1.54032650315032
 1  4.73784595859586 -3.40985471467147 -1.89266819271927
 1  5.38352839373937 -1.37575399939994  0.58011989548955
 1  5.09372790009001 -2.49145077747775  1.92183706400640
 1  6.92482000870087 -3.74852804490449  0.22158004200420
 1  6.64495465586559 -2.69099670867087 -0.97598819431943
 1  7.38676760806081 -0.53354667976798  0.39691693719372
 1  8.02450455335534 -1.67909449254925  1.57301168646865
 1  9.10349445874587 -1.80237851305130 -1.26847018511851
 1  8.95117963666367 -4.32358112951295  0.18873508110811
 1  10.43635297609761 -3.66410061216122 -0.29523963746375
 1  9.97593665506551 -3.40540163166317  1.42330277297730
 1  9.42417156775678  0.17795352155215  0.49456482028203
 1  10.24978507600760 -1.18484501840184  1.49913945394539
 1  12.00625576687669 -1.95953598549855  0.07276290309031
 1  11.25714180088009 -0.91617452235224 -1.36384771837184
 1  11.69679071257126  1.11690611981198 -0.04262381758176
 1  12.53128795209521  0.35601679307931  1.28037631783178
 1  13.60579738043804  0.39768420072007 -1.71728396709671
 1  14.68992833113311 -0.90966917961796  0.65781146114611
 1  14.02517808880888 -1.68709772607261 -0.74833115461546
 1  15.31662265066507 -0.65771897009701 -0.86118301080108
 1  13.71006920112011  2.62949756885689 -0.19178096579658
 1  14.53344004430443  1.65558584778478  0.69549676357636
 1  16.18505016081608  1.27102571527153 -0.71597808850885
 1  15.40539612301230  1.86915082788279 -2.13057443714371
 1  15.35692709730973  4.16714209220922 -0.96725872397240
 1  16.06978974907491  3.59014565596560  0.57116701710171
 1  18.13708739013901  2.88518000920092 -0.94210328992899
 1  16.43470419081908  4.42399892879288 -3.02313467326733
 1  18.14036996049605  4.51108062136214 -3.39807441254125
 1  17.13225342554255  2.94705577557756 -3.29755779037904
 1  18.11282732993299  5.17840905840584  0.40038170237024
 1  18.99745726802680  5.30292444464446 -1.17362427682768
 1  17.41672322322232  5.83285278837884 -1.20003406470647
 1 -5.34007930933093 -7.83309274237424  0.06831329362936
 1 -6.31632606290629 -6.74525161176118  0.87764127162716
 1 -4.59600776937694 -6.67783935953595  1.51471592819282
 8 -7.94225181678168  6.87068356915692 -0.31669945394539
 1 -9.10317861496150  6.31716736163616 -1.81971765456546

