%nproc=4
%Mem=4GB
# td=(NStates=1) iop(3/107=0140000000,3/108=0140000000) iop(3/107=0140000000,3/108=0140000000) CAM-B3LYP/6-31G(d,p) 

TD

0 1
12 -5.64011551815181  1.27435230953095  0.15881448664866
 6 -5.04292467966797 -2.15582404570457 -0.37162402920292
 6 -3.36890567966797  1.18383866866687  2.71695706900690
 6 -6.23909270497050  4.49960322452245  0.74356456525653
 6 -7.97132289938994  1.18046889758976 -2.40358803230323
 7 -4.39669392269227 -0.24003219501950  1.13476481528153
 6 -4.32409593709371 -1.61281498309831  0.65652800240024
 6 -3.25226835133513 -2.31800510331033  1.46484084778478
 6 -2.87255042604260 -1.33772666356636  2.51483803990399
 6 -3.52201962936294 -0.07249987768777  2.12444702990299
 6 -3.30870390979098 -1.72494593599360  3.93694639403940
 6 -2.02688788198820 -2.88857626692669  0.58923422892289
 6 -1.09221086458646 -3.71077865846585  1.40376396439644
 6  0.20280538103810 -3.87708154885489  0.69721791649165
 8  0.49461952625263 -3.30761807540754 -0.44250048424843
 8  0.98322516821682 -4.81198081538154  1.26002060936094
 7 -4.87910872717272  2.61786116301630  1.43293352505251
 6 -3.95736782658266  2.37324474617462  2.38509911321132
 6 -3.64512401610161  3.59977848004801  3.11634219041904
 6 -4.55317587028703  4.58059958825883  2.58384765606561
 6 -5.30281638583858  3.96201429662966  1.53764985728573
 6 -2.67723308640864  3.80328770457046  4.20028421782178
 6 -4.58922545314531  6.01994941544154  2.87312681748175
 8 -4.00634068206821  6.46323421142114  3.78267216711671
 7 -6.80885468536854  2.56010590639064 -0.71178283458346
 6 -7.03020573537354  3.92185180238024 -0.31955364406441
 6 -7.89505469186919  4.61379810461046 -1.17682179167917
 6 -8.40556000930093  3.68031496139614 -2.06701564596460
 6 -7.81846073657366  2.43537954675468 -1.74294024052405
 6 -8.27359034993499  6.01617152655266 -1.20361987078708
 6 -9.48160252355236  3.79459985818582 -3.04495912871287
 6 -8.99197065076508  4.15850399659966 -4.42907931193119
 7 -6.38323674267427 -0.10908592629263 -1.15460055205521
 6 -7.40453998359836  0.01202513391339 -2.11064527522752
 6 -7.56724423162316 -1.36217792139214 -2.66811933453345
 6 -6.70748029682968 -2.17724729652965 -2.07405357105711
 6 -5.98360677607761 -1.40741430653065 -1.09764589498950
 6 -8.55556101390139 -1.88107823382338 -3.80774767096710
 6 -6.17231089818982 -3.60724630853085 -1.99861341644164
 8 -6.56248064356436 -4.54121181958196 -2.60358662376238
 6 -5.00792935503550 -3.56347440004000 -0.83733605340534
 6 -5.41810928832883 -4.58381382248225  0.16250992279228
 8 -6.03921969356936 -4.37422643074308  1.18830519391939
 8 -5.01033073127313 -5.78438963536354 -0.30205334993499
 6 -5.20132769696970 -6.97241909520952  0.41652348214821
 6  2.30559153235324 -5.01927304750475  0.60584453885389
 6  3.26284081908191 -3.90138029892989  1.10860876067607
 6  4.02975236543654 -3.15626849694970  0.11630526552655
 6  3.83859819871987 -3.15367030833083 -1.35944544904490
 6  5.12763918971897 -2.30889593719372  0.71763556235624
 6  6.53018789008901 -2.64433735893589  0.09557102450245
 6  7.68428375197520 -1.77730708620862  0.66031172167217
 6  9.00561138243824 -1.98643347694769 -0.08163594609461
 6  9.60053643534354 -3.46427706810681  0.14506104840484
 6  9.88142872197220 -0.90060029742974  0.39566208170817
 6  11.30454775717572 -0.79619922682268 -0.30383915011501
 6  12.15279296789679  0.37439206670667  0.18938578617862
 6  13.50901335713571  0.47753262316232 -0.60444520772077
 6  14.44504280328033 -0.71477087968797 -0.35386953785379
 6  14.34562050165017  1.73226939853985 -0.21924117891789
 6  15.65996018641864  2.10143817201720 -0.89118411341134
 6  16.11222380678068  3.55857060986099 -0.67615822902290
 6  17.43917916701670  3.89136697829783 -1.28282221742174
 6  17.32888547824782  3.95028992069207 -2.85135735993599
 6  18.04900430653065  5.17369263456346 -0.78324778367837
 1 -2.62180790359036  0.96642091749175  3.54720518891889
 1 -6.22098007680768  5.54191957235724  0.79087807950795
 1 -8.52532293949395  1.27043734663466 -3.13210868966897
 1 -3.67714877967797 -3.10336565196520  2.01090915171517
 1 -1.75674279817982 -1.14463212481248  2.56748802490249
 1 -2.89667944704470 -2.63240640184018  4.06188973297330
 1 -2.97978877157716 -1.12124202860286  4.68268029782978
 1 -4.43068558025803 -1.72678175907591  3.93131708220822
 1 -2.36406171987199 -3.31291080838084 -0.34280490429043
 1 -1.62098993139314 -1.97502661896190  0.29283740534053
 1 -0.90087552105210 -3.33969526512651  2.43754797349735
 1 -1.69958468006801 -4.63554068526853  1.58194999299930
 1 -1.55162527632763  3.71686121052105  3.82118802850285
 1 -2.68350934103410  4.90122732873287  4.64279053675368
 1 -2.73891688668867  3.09967096459646  5.14897990399040
 1 -5.29852291619162  6.66364055845585  2.32889821122112
 1 -10.20684981848185  2.82794345144514 -2.96004925662566
 1 -10.10996179407941  4.70482432653265 -2.87775806650665
 1 -9.92027182698270  4.21935034903490 -5.06499170147015
 1 -8.32828233763376  5.08103784918492 -4.51403135813581
 1 -8.21828167716772  3.52406176497650 -4.77711763656366
 1 -8.19387697729773 -1.16520706360636 -4.53899489778978
 1 -8.39817080008001 -3.04836824192419 -3.91517415441544
 1 -9.57203728322832 -1.63378020142014 -3.45063196989699
 1 -4.10408776617662 -3.85749057565757 -1.49617290419042
 1  2.73144427742774 -6.06878482148215  0.92376833373337
 1  2.31102184558456 -5.09348632473247 -0.44181763136314
 1  3.71745386768677 -3.89879916171617  2.06178118571857
 1  2.84475946264627 -3.65384100520052 -1.56172871387139
 1  3.61083569686969 -1.90073363266327 -1.63117558805881
 1  4.80987316131613 -3.30456418561856 -1.91280020592059
 1  4.77586762766277 -1.28784520852085  0.36905878937894
 1  5.17526605390539 -2.54664629702970  1.74579946024602
 1  6.81951947864787 -3.80166335843584  0.06894477847785
 1  6.29231939233923 -2.18738634763476 -0.97520811631163
 1  7.58796772807281 -0.59479280438044  0.73862110761076
 1  7.71726382928293 -2.09494607770777  1.90337472277228
 1  8.72348645794579 -1.85964423962396 -1.22117545564556
 1  9.07097161586159 -4.15788455985598 -0.36503029542954
 1  10.50966030683068 -3.57627182928293 -0.41371148464846
 1  9.66494555595560 -3.84286537803780  1.17667811051105
 1  9.41648079867987  0.21685741194119  0.26107147094709
 1  10.10918101560156 -1.01691822572257  1.40621016101610
 1  11.75119026032603 -1.72430246214622 -0.02942731593159
 1  11.26186227292729 -0.89000190509051 -1.32628396199620
 1  11.59561059455946  1.38068249744975 -0.09061861706171
 1  12.46797162046205  0.36369756115612  1.27204548474847
 1  13.21105790649065  0.75400983328333 -1.61581382008201
 1  14.72051138943894 -0.59068728142814  0.76081176117612
 1  13.68613418441844 -1.63951296759676 -0.46590291179118
 1  15.46784777317732 -0.68244144234423 -0.92370926342634
 1  13.63979217341734  2.59329394849485 -0.50183197089709
 1  14.62494919521952  1.67182747194719  0.90007722162216
 1  16.34348600440044  1.23769238193819 -0.59896638733873
 1  15.44819040244024  2.26285019781978 -1.93560494019402
 1  15.33827523212321  4.21058643664366 -0.84338633673367
 1  16.13881665176518  3.68240488188819  0.66503640404040
 1  18.21184486588659  3.17481897309731 -1.08717779737974
 1  16.47514823522352  4.68562509140914 -2.96938929872987
 1  18.23945986948695  4.17995750905091 -3.49131373647365
 1  16.96606680688069  2.94862593259326 -3.15793382798280
 1  18.08335438263826  5.23682489999000  0.39505116931693
 1  18.98445596789679  5.17882203440344 -1.33051996639664
 1  17.33662521342134  5.82079158225823 -1.19283334463446
 1 -4.75854115551555 -7.86071550465046 -0.09372290999100
 1 -6.26697112741274 -7.09376646324633  0.80294380188019
 1 -4.81726989558956 -6.93211478707871  1.29966442304230
 8 -7.86728432003200  6.78019452025203 -0.35713349734973
 1 -9.10319861696170  6.52986863176318 -1.82605828862886

