%nproc=4
%Mem=4GB
# td=(NStates=1) iop(3/107=0140000000,3/108=0140000000) iop(3/107=0140000000,3/108=0140000000) CAM-B3LYP/6-31G(d,p) 

TD

0 1
12 -5.60824233083308  1.17718259255926  0.27040564576458
 6 -5.14640502770277 -2.15041350465047 -0.24977184398440
 6 -3.20976976607661  1.11571185598560  2.71209658295830
 6 -6.18750754645465  4.47693095729573  0.66698690749075
 6 -8.15039080618062  1.04777562826283 -2.30923859735974
 7 -4.44932918621862 -0.33605179697970  1.04255559435944
 6 -4.28629215671567 -1.58895259685969  0.72828517811781
 6 -3.32235536003600 -2.39269257205721  1.45801016471647
 6 -2.97020019101910 -1.40419331023102  2.61982853895390
 6 -3.52006943434343 -0.12231485918592  2.14169875507551
 6 -3.69411245064506 -1.81905534693469  3.94166686608661
 6 -2.05316050925093 -2.72558996829683  0.63562886838684
 6 -1.05051669516952 -3.68298587918792  1.30683427142714
 6  0.26075117561756 -3.91541538223822  0.63996219091909
 8  0.44784484878488 -3.33721103470347 -0.46703293749375
 8  1.11945879157916 -4.59775939323932  1.24417902520252
 7 -4.89748056435644  2.50302967986799  1.53822405410541
 6 -3.82434452425243  2.37513493519352  2.40284088738874
 6 -3.54551405510551  3.68099660186019  3.03178373457346
 6 -4.35826637933793  4.58201973027303  2.51675094639464
 6 -5.23144924912491  3.90423851905190  1.47566365866587
 6 -2.65139050215022  3.90432780858086  4.08187237663766
 6 -4.49163569416942  6.01664908540854  2.85496500130013
 8 -3.86604665266527  6.63343123112311  3.67223112301230
 7 -6.91483528342834  2.56477637343734 -0.65155681198120
 6 -6.89239195399540  3.87034665186519 -0.31646333503350
 6 -7.88320350675068  4.64189091389139 -1.16368047754775
 6 -8.40131958525853  3.67441437133713 -2.06557550195019
 6 -7.79536842734273  2.34733074187419 -1.76326227272727
 6 -8.22486547744774  6.04321423082308 -1.20836034483448
 6 -9.44471883518352  3.92630302850285 -3.17774240704070
 6 -8.89404085778578  4.29398754495450 -4.55253165716572
 7 -6.42028044704470 -0.15111012871287 -1.09810490249025
 6 -7.41788131773177 -0.10908697729773 -2.10795500620062
 6 -7.66278378557856 -1.37179888348835 -2.70626314891489
 6 -6.71646119491949 -2.20363993579358 -2.08344451015102
 6 -6.01020943634363 -1.40068363346335 -1.07636376677668
 6 -8.53276873467347 -1.68539866586659 -3.85395229142914
 6 -6.20985465256526 -3.65311089498950 -2.02341589668967
 8 -6.59145354085409 -4.58335603400340 -2.62284854995500
 6 -5.22354091619162 -3.59676772937294 -0.80753307310731
 6 -5.41988946634663 -4.69230467156716  0.17875154695470
 8 -5.74722049364936 -4.37456646474647  1.33986034943494
 8 -5.22811250945095 -5.82206340274027 -0.28079122372237
 6 -5.45591315551555 -6.94551640494049  0.64781661146115
 6  2.24710568376838 -4.94835595579558  0.60352430683068
 6  3.47662219721972 -4.21173133403340  0.99935783558356
 6  4.10611000120012 -3.32259512961296  0.20608424342434
 6  3.72437677657766 -2.94076901820182 -1.24111361586159
 6  5.17222364816482 -2.40740578817882  0.67734153295330
 6  6.56294116541654 -2.67266019121912 -0.01954048664866
 6  7.71219654325433 -1.78174753025303  0.48723441394139
 6  9.05677649894989 -1.93344817841784 -0.17954573707371
 6  9.59111549324933 -3.34430507090709  0.04528107040704
 6  9.96142672177218 -0.82928316571657  0.31997451295129
 6  11.39483678607861 -0.88018762566257 -0.31687045324532
 6  12.23769145774577  0.19659428692869  0.23101994959496
 6  13.57397985378538  0.44908977887789 -0.69404416761676
 6  14.55130342934294 -0.79263866646665 -0.63860801170117
 6  14.23654959455946  1.74600077167717 -0.24006326112611
 6  15.57397158755876  2.18051607980798 -0.92798779377938
 6  16.05535812021202  3.52088684148415 -0.46687730093009
 6  17.41337658675868  3.99731757335734 -1.05572950815082
 6  17.34354694439444  3.86083097479748 -2.62458468266827
 6  17.67237664376437  5.57057232253225 -0.58928838773877
 1 -2.36418214101410  1.12687696309631  3.36917738613861
 1 -6.61155913471347  5.40459583998400  1.16230522222222
 1 -8.82152255945594  1.26782708560856 -3.15260073887389
 1 -3.57210827562756 -3.31794711011101  2.04342240304030
 1 -1.92461958585859 -1.28947660926093  2.74272554865487
 1 -3.21237101620162 -2.80644380558056  4.52734627862786
 1 -3.54495528822882 -0.80754065846585  4.66081811161116
 1 -4.82043455515552 -1.99074815571557  3.77329127962796
 1 -2.32201751545155 -3.48607812511251 -0.39117974177418
 1 -1.65779361176118 -1.84432354865487  0.18442656425643
 1 -0.85145057855786 -3.30400169576958  2.42026624532453
 1 -1.57354207580758 -4.47643477467747  1.62133393139314
 1 -1.63018313211321  3.30925044944494  3.82487839753975
 1 -2.56490748084809  4.95816302230223  4.32412867056706
 1 -2.84722771777178  3.41930292779278  5.19149415541554
 1 -5.09299236313631  6.53949814421442  1.93304862626263
 1 -9.96195532903290  3.08225888298830 -3.32190544224422
 1 -9.94232503040304  4.70917476157616 -3.08327861856186
 1 -9.59461926172617  4.37549596359636 -5.21251645394539
 1 -8.27658716811681  5.22343208860886 -4.42066202120212
 1 -8.30996084508451  3.50628998779878 -4.93153307810781
 1 -8.23389097869787 -0.98684922782278 -4.58572957125712
 1 -8.35244622762276 -2.61249465456546 -4.36335897289729
 1 -9.62820289978998 -1.75947277067707 -3.60877778447845
 1 -4.09026638403840 -3.89257408400840 -1.34294758165817
 1  2.40282141514151 -6.05956389938994  0.78582453935394
 1  2.29381012441244 -4.88036501260126 -0.56909035863586
 1  3.71186330863086 -4.08489777157716  1.98734374197420
 1  2.65784077077708 -3.23708933003300 -1.47971051205121
 1  3.71089570287029 -1.90634419371937 -1.66697916841684
 1  4.40513268726873 -3.40205393459346 -1.95198412431243
 1  5.03084312521252 -1.33908033203320  0.34156604010401
 1  5.21651017831783 -2.39713134553455  1.77838271857186
 1  6.94952247894789 -3.81259445154515  0.13686157015702
 1  6.24006416681668 -2.69496710571057 -1.08959955545555
 1  7.39251818311831 -0.82593591869187  0.18418566406641
 1  7.74366646954696 -2.01947853095310  1.50498488378838
 1  9.04403851315132 -1.93981225642564 -1.23636697479748
 1  8.78169268796880 -4.07520629202920 -0.05753954635464
 1  10.57086642744274 -3.42374657675768 -0.85499561306131
 1  9.90923998539854 -3.52760385188519  1.07771821452145
 1  9.57876702730273  0.31969769596960  0.00707607140714
 1  10.02287238473847 -0.87571410531053  1.55401494149415
 1  11.68294343564356 -1.91987201910191 -0.16540091329133
 1  11.26421250795080 -0.72831573647365 -1.48925025862586
 1  11.95035606910691  1.32652708190819  0.30500094489449
 1  12.45580040334033  0.04982617401740  1.21992027222722
 1  13.13864066476648  0.54577901020102 -1.75916815551555
 1  14.86416575487549 -0.94916312901290  0.35262094209421
 1  13.84063963496350 -1.81416043234323 -0.97445376687669
 1  15.37634862326233 -0.84363756195620 -1.25758265076508
 1  13.59723791799180  2.62672729182918 -0.50645243294329
 1  14.43318001830183  1.77994828402840  0.84233144704470
 1  16.39452110791079  1.42352096479648 -0.75283177387739
 1  15.59140472387239  2.12821673447345 -2.04638601830183
 1  15.24318572317232  4.28308368636864 -0.74859685778578
 1  16.33503627372738  3.65277191859186  0.57273717411741
 1  18.20642432383238  3.24255574677468 -0.54813389298930
 1  16.60908162856285  4.71151768066807 -3.14820718051805
 1  18.56643256675668  3.86824633793379 -2.97052165726573
 1  16.81925212541254  2.87188825882588 -2.82380041464146
 1  17.62840888808881  5.50701191869187  0.28388005220522
 1  18.78472599489949  5.82021617381738 -1.00645756015601
 1  16.85883743464346  6.22910241334133 -1.04102816411641
 1 -5.11742704410441 -7.95040447354735  0.26304276657666
 1 -6.55149958025803 -6.87697478407841  1.02651615911591
 1 -4.87365553415342 -6.78109968556856  1.51218567516752
 8 -7.89126671827183  6.84339083988399 -0.35770355435544
 1 -9.09687798489849  6.32340798569857 -1.98642432523252

