%nproc=4
%Mem=4GB
# td=(NStates=1) iop(3/107=0140000000,3/108=0140000000) iop(3/107=0140000000,3/108=0140000000) CAM-B3LYP/6-31G(d,p) 

TD

0 1
12 -5.59727123372337  1.16867174147415  0.20980958615862
 6 -5.08831921912191 -2.16338480178018 -0.36747361416142
 6 -3.47247603670367  1.17126741154115  2.73686906020602
 6 -6.13706250195020  4.53643690789079  0.63250345914591
 6 -7.97639340644064  1.23088393909391 -2.41091876537654
 7 -4.39807406070607 -0.33504169596960  1.00213155195520
 6 -4.38150167766777 -1.63838754035404  0.68973132273227
 6 -3.33249637413741 -2.33738704150415  1.51217558125813
 6 -3.06969014001400 -1.39601249214921  2.65543209930993
 6 -3.69021644904490 -0.08196082378238  2.18027261246125
 6 -3.43929696909691 -1.92996643804380  4.09616231563156
 6 -2.02563775697570 -2.68177558685869  0.75904120962096
 6 -0.96936858035804 -3.49976755735574  1.52910649864986
 6  0.26651175167517 -3.90893473417342  0.59183737843784
 8  0.42448251255125 -3.61312862646265 -0.58613484768477
 8  1.09079592529253 -4.58660827812781  1.35605021232123
 7 -4.82540335663566  2.71914129102910  1.41217144884488
 6 -4.07483957375738  2.40329775147515  2.51306190949095
 6 -3.81243074677468  3.61682018421842  3.28937949414941
 6 -4.47690824352435  4.54384591289129  2.63384265556556
 6 -5.21130723492349  3.98104619981998  1.51792788508851
 6 -2.75696105920592  3.73061043684368  4.29560374977498
 6 -4.65003153375338  6.00391781228123  2.88827833263326
 8 -4.06499654765476  6.68467635563556  3.74266816671667
 7 -6.98422222212221  2.59911980778078 -0.70377203350335
 6 -6.97089980478048  3.86399601680168 -0.34706639533953
 6 -7.90097528392839  4.65470219501950 -1.25286939643964
 6 -8.47743719701970  3.59815674557456 -2.06491543594359
 6 -7.81757064756476  2.41555756455646 -1.67783372987299
 6 -8.26518950985099  6.03783369276928 -1.11451095989599
 6 -9.46445080838084  3.85277567576758 -3.10679531233123
 6 -8.77766922062206  3.98398654485448 -4.41149755375538
 7 -6.32588100710071 -0.15332034973497 -1.18429352135214
 6 -7.33541307090709  0.00025395679568 -2.18772298299830
 6 -7.58545605280528 -1.34287599119912 -2.74038656125613
 6 -6.60344989378938 -2.16112568436844 -2.12412857855786
 6 -5.94762317771777 -1.42937650275027 -1.13247937833783
 6 -8.51268672647265 -1.73234336033603 -3.84801169736974
 6 -6.24663833093309 -3.54528011191119 -2.09511306640664
 8 -6.53415781128113 -4.54583228162816 -2.67617388248825
 6 -5.11506006810681 -3.57160521312131 -0.88459077887789
 6 -5.36479395679568 -4.64672011311131  0.12689636143614
 8 -5.72499827142714 -4.52094110221022  1.34654101750175
 8 -5.14815451365136 -5.87943914031403 -0.34609775437544
 6 -5.50919848404841 -6.94695654895490  0.46852868266827
 6  2.35265623882388 -5.00218133833383  0.56708066246625
 6  3.37898243324332 -4.09360952185219  1.01202910271027
 6  4.01639102930293 -3.18997186728673  0.17622125712571
 6  3.70757509640964 -2.99685462676268 -1.36262576707671
 6  5.19466589238924 -2.32286733433343  0.68997279607961
 6  6.59980485178518 -2.56560948614861 -0.09424795739574
 6  7.63294861846185 -1.70843019851985  0.56167185768577
 6  9.07569839113911 -1.95609044264426 -0.04613239573957
 6  9.55078145984599 -3.36474711511151  0.13176971927193
 6  9.97225780488049 -0.78008824622462  0.48896141164116
 6  11.30822812521252 -0.71023062996300 -0.31213998019802
 6  12.34435212381238  0.44836946444644  0.16889373697370
 6  13.55505796159616  0.55341021092109 -0.64413917711771
 6  14.37914621362136 -0.73558296089609 -0.42332648354835
 6  14.25849178877888  1.76411258285829 -0.15432468726873
 6  15.56228041844184  2.07287531573157 -0.99853484848485
 6  16.08874145854585  3.42871762456246 -0.64179479267927
 6  17.39527477657766  3.79178702030203 -1.32977691289129
 6  17.35921851155116  3.91765665736574 -2.87228945314531
 6  18.07792719881988  5.12686795209521 -0.72934239313931
 1 -2.66217193999400  1.22496677207721  3.42926339473947
 1 -6.17043502230223  5.62353773417342  0.65199419111911
 1 -8.65846625382538  1.24217452035203 -3.24700017881788
 1 -3.71593265806581 -3.31453676907691  2.02544060486049
 1 -2.07213433733373 -1.00590825242524  2.80066134223422
 1 -2.66294607370737 -2.62529569076908  4.27721126512651
 1 -3.36392718541854 -1.09516942134213  4.71555358515852
 1 -4.37495000670067 -2.11585066596660  3.92859681018102
 1 -1.98528384208421 -3.32872238953895 -0.32840346414641
 1 -1.25356318871887 -1.81618073437344  0.42532065366537
 1 -0.60200563406341 -2.94699599519952  2.28363258195820
 1 -1.48115283688369 -4.37484461566157  1.89215101310131
 1 -1.61444155795580  3.50398992339234  4.22211812151215
 1 -2.96885787588759  4.80693789978998  4.88644490219022
 1 -2.92082507750775  3.01561255875588  5.26898190419042
 1 -5.38923198709871  6.37139133353335  2.14233955535554
 1 -10.25608474197420  2.96935759285929 -3.05533878557856
 1 -10.30252105000500  4.57495133923392 -2.72389267996800
 1 -9.43117291709171  4.37038545254526 -5.37352255455546
 1 -8.20617012641264  4.86745649104911 -4.25677563256326
 1 -8.15539538853885  3.20696005480548 -4.80431035583558
 1 -8.50205779537954 -0.86872741564156 -4.61846284458446
 1 -8.24428541154115 -2.69102250735074 -4.14793743074307
 1 -9.46599667916792 -1.77150397379738 -3.30045695239524
 1 -4.39857721512151 -3.81028585518552 -1.65321860876088
 1  2.70678181118112 -6.06069401240124  0.89249520642064
 1  2.18786953035304 -4.74214119021902 -0.43058650825083
 1  3.65732785508551 -4.23142242404240  1.94147915551555
 1  2.79082406910691 -3.24953057415742 -1.63427596859686
 1  3.85981059435944 -2.01903546284628 -1.68513098359836
 1  4.40868304230423 -3.44313804300430 -2.04283320922092
 1  4.88420846174617 -1.28195461946195  0.68507039053905
 1  5.43596212351235 -2.64827646004600  1.69385426572657
 1  6.71810933763376 -3.58619181128113  0.01077896189619
 1  6.68300846124612 -2.37678528752875 -1.16942753825383
 1  7.21322025332533 -0.65004832993299  0.28911615711571
 1  7.55822792569257 -1.88524510761076  1.79224360966097
 1  8.82008611791179 -1.57324559975998 -1.10962430053005
 1  8.78698321702170 -4.17499627102710 -0.48280207260726
 1  10.32146148694870 -3.53062726482648 -0.51427154065407
 1  10.00099916131613 -3.59225031653165  1.06024646734673
 1  9.51958110871087  0.18615434163416  0.43406877067707
 1  10.14035413291329 -1.06266280018002  1.54066360636064
 1  11.91013615491549 -1.65382541444144 -0.14929930313031
 1  10.97039312601260 -0.64999790469047 -1.40387172077208
 1  11.91017205070507  1.58390281948195  0.27402784758476
 1  12.56466128942894  0.19615080648065  1.20205848604860
 1  13.48615541624162  0.48791322362236 -1.61406364506451
 1  14.80909024732473 -0.78876708940894  0.73066874687469
 1  13.84200977197720 -1.54379339563956 -0.64338065956596
 1  15.35787677607761 -0.65135833403340 -0.87337422992299
 1  13.50559875407541  2.57874249334933 -0.07846963466347
 1  14.63532023232323  1.50350063926393  0.87368458235824
 1  16.30485214101410  1.48083669636964 -0.80881737243724
 1  15.33854943834383  1.83812772557256 -2.07696907660766
 1  15.35224662926293  4.18934431243124 -0.63469546764676
 1  16.19288205830583  3.50459710111011  0.31569146954695
 1  18.14529821122112  2.97541903310331 -1.08860794039404
 1  16.63028374877488  4.82256878577858 -3.00877323712371
 1  18.28062398589859  4.13652316561656 -3.18569317441744
 1  16.97682788298830  2.97407847784778 -3.30772880748075
 1  18.13311935913591  4.94569578707871  0.37168883308331
 1  18.92755027732773  5.31956610881088 -1.39556647104710
 1  17.34835638653865  5.92722222532253 -0.76696075737574
 1 -5.13087838923892 -8.04992442554255 -0.02077561526153
 1 -6.53345777607761 -6.95940302690269  0.75339884738474
 1 -5.10552872147215 -6.91275285088509  1.50056451305131
 8 -7.73252084368437  6.81786828762876 -0.44645242924292
 1 -9.08140643774377  6.17619326422642 -1.90677636043604

