%nproc=4
%Mem=4GB
# td=(NStates=1) iop(3/107=0140000000,3/108=0140000000) iop(3/107=0140000000,3/108=0140000000) CAM-B3LYP/6-31G(d,p) 

TD

0 1
12 -5.73790529712971  1.12490736503650  0.33350195539554
 6 -4.92249263646365 -2.13770223352335 -0.34398126492649
 6 -3.34772356145615  1.17456774157416  2.78183355665567
 6 -6.08568736443644  4.60963422762276  0.61677188598860
 6 -7.97443321042104  1.13842469316932 -2.28547622112211
 7 -4.41557581088109 -0.33762195399540  1.14889622842284
 6 -4.25234876237624 -1.62139584118412  0.79316166576658
 6 -3.11899502400240 -2.35816911971197  1.46600096379638
 6 -2.77557072807281 -1.29691258215822  2.65045160126013
 6 -3.53662108950895 -0.05188781648165  2.19207379257926
 6 -3.29236227562756 -1.82720616201620  4.03150584998500
 6 -1.90410560376038 -2.68101551085108  0.67224252975298
 6 -0.96161780528053 -3.61705928652865  1.47852144014401
 6  0.30321542204220 -3.95766960766077  0.53986218091809
 8  0.45837590189019 -3.52152946654665 -0.50868710291029
 8  1.06383322902290 -4.85048466576658  1.16814142144214
 7 -4.97219803610361  2.59101847874787  1.58552878457846
 6 -4.02765485528553  2.42248967066707  2.55391599489949
 6 -3.61824132783278  3.67916641884188  3.15145570177018
 6 -4.43139369206921  4.59488101640164  2.49654892619262
 6 -5.25992209640964  3.97204529972997  1.47024311661166
 6 -2.73948931203120  3.83325070087009  4.31654584398440
 6 -4.52689922052205  6.04308172867287  2.90276978177818
 8 -3.84611465946595  6.58304619261926  3.70339423932393
 7 -6.91623542344234  2.67030692649265 -0.60684234053405
 6 -6.98535124992499  3.90176979417942 -0.31513320202020
 6 -7.80871605800580  4.64808153295330 -1.22045615511551
 6 -8.33042249554955  3.68860579047905 -2.14959390379038
 6 -7.71375026552655  2.41615762456246 -1.72363831033103
 6 -8.17865085598560  6.02606251565157 -1.23452296109611
 6 -9.22284664796480  3.81946234443444 -3.34762939573957
 6 -8.54265571927193  4.11122926912691 -4.65972237623762
 7 -6.34961338033803 -0.13760877857786 -1.00230532253225
 6 -7.33202273187319 -0.09737580618062 -1.98772298299830
 6 -7.49814732193219 -1.38052975657566 -2.63383590619062
 6 -6.60810035883588 -2.18532810461046 -2.00719688538854
 6 -5.88889730513051 -1.40001356645665 -1.11211734213421
 6 -8.36013147094709 -1.63395352135214 -3.79989688588859
 6 -6.11217488458846 -3.54612019591959 -1.89380293539354
 8 -6.43189758525853 -4.56238393679368 -2.55819208430843
 6 -4.93535209730973 -3.54331238383838 -0.88306062586259
 6 -5.39395687308731 -4.59596503760376  0.12701637343734
 8 -5.87903367496750 -4.47531653975398  1.27079344274427
 8 -5.10532023022302 -5.84839603600360 -0.38465160976098
 6 -5.43926149034904 -6.87712956625663  0.44065589538954
 6  2.35200617381738 -5.21837295749575  0.62410636503650
 6  3.28478301330133 -4.24800496139614  0.92456035583558
 6  3.94769415961596 -3.41097396749675  0.05029866486649
 6  3.60497483638364 -3.28312325362536 -1.37634713921392
 6  5.04799122492249 -2.37933298089809  0.52950674947495
 6  6.33021789308931 -2.52829575477548 -0.12405093769377
 6  7.37225254885489 -1.62820217571757  0.52994868536854
 6  8.77319814111411 -1.82400723432343 -0.16298408090809
 6  9.35973235493549 -3.33322396279628 -0.01895535323532
 6  9.83962454155416 -0.77466770417042  0.30984349984998
 6  11.13454075647565 -0.68796840374037 -0.29919868606861
 6  12.17952564116412  0.32693732123212  0.24879172677268
 6  13.46292874867487  0.52917778767877 -0.52359712291229
 6  14.39922822182218 -0.64739414201420 -0.33338748964896
 6  14.19168510811081  1.80147631923192 -0.00549980478048
 6  15.40460465086509  2.15107313551355 -0.77467246224622
 6  16.01861444584458  3.61267602040204 -0.61393200640064
 6  17.26620186928693  3.88102594419442 -1.41741567676768
 6  17.04280687038704  3.89982487418742 -2.85513773797380
 6  17.92426183228323  5.15294055935594 -0.72802226112611
 1 -2.65636135893589  1.08364263966397  3.62126259465947
 1 -6.30434841364136  5.57981336173617  0.50458945064506
 1 -8.65048545574557  1.19621992489249 -3.35703118191819
 1 -3.47576864166417 -3.21428674407441  1.99544760556056
 1 -1.64019114301430 -1.22203986558656  2.84867614371437
 1 -2.98973875297530 -2.89274243544354  4.38937248124812
 1 -2.83062385508551 -0.98237814221422  4.69297132693269
 1 -4.44421693339334 -1.78333741464146  3.93217716821682
 1 -2.21337665136514 -3.14479399669967 -0.31096171997200
 1 -1.24180201260126 -1.64168328462846  0.56638476007601
 1 -0.70567600110011 -3.09370066566657  2.54981920062006
 1 -1.34526924852485 -4.69006613781378  1.50836263426343
 1 -1.83246336013601  3.69052857725773  4.00635654535454
 1 -2.92279326942694  4.78883608960896  4.74422067976798
 1 -3.05554854985499  2.93831482898290  5.03939894589459
 1 -5.54503756765676  6.43904809920992  2.54641996339634
 1 -10.01856098959896  3.01387204430443 -3.46914016571657
 1 -9.82124292219222  4.73227707180718 -3.21872216291629
 1 -9.30273007280728  4.05536395039504 -5.63849905220522
 1 -8.01982149154916  5.04474421982198 -4.87395735073507
 1 -7.77921777077708  3.23355271407141 -4.85978590339034
 1 -8.14632222182218 -1.16129667256726 -4.63625462376238
 1 -8.55322630563056 -2.66223962906291 -4.16934957195720
 1 -9.46085616511651 -1.29813663706371 -3.56097300400040
 1 -4.00974833223322 -3.81609643624363 -1.49130241714171
 1  2.56004713771377 -6.18461640464046  1.11240719761976
 1  2.24874561796180 -5.27652462856286 -0.55132858245825
 1  3.67327945024502 -4.16118540034003  1.95322032963296
 1  2.55711069776978 -3.61222684378438 -1.45476801780178
 1  3.70633524682468 -2.19546310561056 -1.75759823032303
 1  4.18985115911591 -3.94188791799180 -2.23503242914291
 1  4.75344538543854 -1.35765218921892  0.25459734323432
 1  5.13886241354135 -2.37145877827783  1.50007488778878
 1  6.51359888658866 -3.50419361146115 -0.02826494249425
 1  6.15278543894389 -2.30676828582858 -1.24907550305030
 1  7.11565049634963 -0.49218254335434  0.52563980948095
 1  7.67536963986399 -2.14439102220222  1.51280566586659
 1  8.76114022332233 -1.59752802800280 -1.28284162226223
 1  8.69722424112411 -4.12888165956596 -0.59741353375337
 1  10.39501884268427 -3.46710091219122 -0.42655276877688
 1  9.57246630803080 -3.73353444494449  0.88713915661566
 1  9.51724087468747  0.20769649584959  0.43700906470647
 1  10.06258635613561 -1.02531906580658  1.28604814481448
 1  11.51772691399140 -1.65735576747675 -0.22034640784078
 1  10.96622270897090 -0.48697160206021 -1.36350768436844
 1  11.50757179067907  1.31082551175118  0.08194863966397
 1  12.13686851015101  0.03675486688669  1.31076935713571
 1  13.13575037573757  0.62800723302330 -1.36896913561356
 1  14.72562190049005 -0.97362557525753  0.72475815581558
 1  14.04667023802380 -1.61981099739974 -0.57840416191619
 1  15.31043203160316 -0.52273547174717 -0.86084297679768
 1  13.41919011321132  2.73051767086709 -0.28961074877488
 1  14.45959265956596  2.02366265546555  1.03932114601460
 1  16.21605326112611  1.32401101380138 -0.48281477217722
 1  15.32632821622162  2.14481839463946 -1.89537091679168
 1  15.32281368596860  4.42746812481248 -0.79340133823382
 1  16.27212998309831  3.63722036343634  0.38983888428843
 1  18.11153483488349  3.22671416261626 -1.20335941554155
 1  16.40583130353035  4.85148167706771 -2.79116147594759
 1  18.03398932243224  4.22864237753775 -3.25811041614161
 1  16.33273347354735  3.08294936493649 -3.33315134973497
 1  18.39590563776378  4.89864108160816  0.30246191039104
 1  18.78037555985599  5.49676382858286 -1.26684359875988
 1  17.10458200910091  5.88843834693469 -0.37974203550355
 1 -5.24346964836484 -7.80345977907791 -0.26139967766777
 1 -6.48502293259326 -6.88968605520552  0.67404091159116
 1 -4.72644081268127 -6.73025460106011  1.39561401800180
 8 -7.72229982158216  6.81619812061206 -0.53443122712271
 1 -8.93028132523252  6.34276992189219 -1.98279396219622

