%nproc=4
%Mem=2GB
# td=(NStates=1) iop(3/107=0140000000,3/108=0140000000) iop(3/107=0140000000,3/108=0140000000) CAM-B3LYP/6-31G(d,p) 

TD

0 1
12 -6.73593616571657  0.66732587668767  0.12378999849985
 6 -4.56989409590959 -2.01342976477648  0.42624290129013
 6 -4.30222203760376  2.63081471457146  1.20195307690769
 6 -8.86360906560656  3.29338336243624 -0.17134663636364
 6 -9.31431952955296 -1.62728575817582 -0.70717077577758
 7 -4.79189426132613  0.34721411911191  0.77261629372937
 6 -4.05459272487249 -0.78549825662566  0.75796635203520
 6 -2.54504792339234 -0.67149890909091  1.05719778207821
 6 -2.54429439523952  0.75003515231523  1.42288445094509
 6 -3.88016427932793  1.40249033423342  1.06744151885189
 6 -2.24887117281728  1.12771456735674  2.88838340114011
 6 -1.57877662606261 -1.13746631003100 -0.10719939363936
 6 -0.09642776107611 -1.25473718031803  0.27161623512351
 6  0.72189326852685 -1.28198543544354 -0.95418359215922
 8  0.48347841594159 -0.94936754925493 -2.10492148234823
 8  1.79827011361136 -1.99058935753575 -0.47427234973497
 7 -6.71117285948595  2.51904227422742  0.30408415631563
 6 -5.50229078997900  3.16161480468047  0.59386568276828
 6 -5.62400661586159  4.59343902870287  0.54990985958596
 6 -7.09854056745675  4.76374246474647  0.31247783108311
 6 -7.53076478037804  3.46581538993899  0.17170200160016
 6 -4.80631555185519  5.70673810431043  1.07250491849185
 6 -7.87206876817682  6.20339725982598  0.01559108280828
 8 -7.16487040324032  7.32160377697770  0.23314117091709
 7 -8.62849640314031  0.72836369556956 -0.52038468756876
 6 -9.24739841224122  1.97804253955396 -0.57986903920392
 6 -10.78504513481348  1.64847471857186 -0.79753553475348
 6 -10.97128148564856  0.28538944334433 -0.92709356485649
 6 -9.66589825312531 -0.20167833103310 -0.81502357905791
 6 -11.74787156245625  2.77824401750175 -0.90948559935994
 6 -12.09529264976498 -0.43908747104710 -1.39749788348835
 6 -11.92857972007201 -1.03731589678968 -2.85263805850585
 7 -6.98791527442744 -1.43064562586259  0.04692204770477
 6 -8.13273593519352 -2.16756675337534 -0.35107830583058
 6 -7.52992057715772 -3.64318164056406 -0.39632064216422
 6 -6.24005962716272 -3.66213537443744  0.02365410481048
 6 -5.96726301500150 -2.26656547104710  0.23312949724973
 6 -8.43893241674167 -4.85939331713171 -0.72668548444844
 6 -5.19828603310331 -4.34721051915192  0.24665269096910
 8 -5.06911866056606 -5.58703924222422  0.08453896049605
 6 -3.93302702810281 -3.50120067926793  0.65117976517652
 6 -3.51596510741074 -3.82165834133413  1.98896860986099
 8 -4.07054229432943 -4.04454118891889  2.91337000680068
 8 -2.14770644554455 -3.73759006430643  2.00270020922092
 6 -1.57294581668167 -3.95862095219522  3.09510393559356
 6  2.93537543034303 -2.25970114701470 -1.38846009010901
 6  3.96361012841284 -1.21436843794379 -1.15305083738374
 6  5.10793154855485 -1.11959883128313 -1.98096429802980
 6  5.24692867666767 -1.83003613831383 -3.34152113431343
 6  6.10033385798580 -0.10604825772577 -1.65303186168617
 6  7.37153584758476 -0.79385516761676 -1.02644938223822
 6  8.44373693399340  0.16586222082208 -0.46164464496450
 6  9.80988407780778 -0.42520944124412 -0.04779308500850
 6  9.69561707800780 -1.21752056675668  0.99220358915892
 6  10.87429975997600  0.57956281048105  0.17297213561356
 6  12.27346261676168 -0.17181587438744  0.17647595879588
 6  13.47934947754776  0.94267154185419  0.28593149154915
 6  14.79267560276028  0.44368764686469  0.36979164126413
 6  14.83545853395340 -0.14196647714771  1.83173309730973
 6  15.84878450685069  1.64272917491749  0.11443464876488
 6  17.47680715881588  0.93293851825183  0.36147927402740
 6  18.31247079447945  2.10461765296530 -0.18122826962696
 6  19.82172437353735  1.47973646844685 -0.32804288798880
 6  19.93866366766677  0.57481291159116 -1.54416020722072
 6  20.80839800870087  2.50958237623762 -0.35237033293329
 1 -3.55021565986599  3.50130138113811  1.58666806850685
 1 -9.57037101960196  3.93960304540454 -0.49543317721772
 1 -10.13131562316232 -2.00845124442444 -0.96993981988199
 1 -2.10417293409341 -1.16196381418142  2.05500554885489
 1 -1.67050638923892  0.86974745094509  0.96238269166917
 1 -1.53704508820882  0.26674498889889  3.11731244234423
 1 -1.96259443334333  2.03012158855886  3.03967008480848
 1 -3.05944827732773  1.06848473377338  3.59669553865387
 1 -2.08426744704470 -2.00871214421442 -0.70029781658166
 1 -1.67927309630963 -0.45687716061606 -0.89409920072007
 1  0.29493749204921 -0.49950138343834  1.23084895009501
 1 -0.14456817661766 -2.22306864066407  0.89499973207321
 1 -3.91530606100610  4.99341716961696  0.47324228192819
 1 -5.07568784938494  6.71709438533853  0.43006991309131
 1 -4.99392042024202  5.64407336833683  2.50216798909891
 1 -8.94717773187319  6.06006111531153 -0.45117149294929
 1 -12.34068362196220 -1.36936780428043 -0.59978440564056
 1 -12.99451566656666  0.35461186098610 -1.22589022542254
 1 -12.73352117521752 -1.64044616001600 -3.17350446754675
 1 -11.94932189598960 -0.20740331883188 -3.42529469896990
 1 -10.93549037343734 -1.65137845484548 -2.91259786718672
 1 -8.71823100640064 -4.76072262786279 -1.71128335633563
 1 -7.96608182278228 -5.91837184978498 -0.86654630653065
 1 -9.33418069806981 -5.09662162336234 -0.13403879437944
 1 -3.16816639803980 -3.69326305120512 -0.15455376217622
 1  3.24488610401040 -3.33386065986599 -0.75979169626963
 1  2.39296358515852 -2.51117703270327 -2.30705094039404
 1  3.59990731843184 -0.74585733413341 -0.03097949634963
 1  4.54108716571657 -1.29328280078008 -3.74503461846185
 1  6.15326890529053 -1.70008868426843 -3.93705492939294
 1  5.26462028942894 -2.57008962326233 -3.47644182798280
 1  6.47438786068607  0.26888222562256 -2.23814643184318
 1  5.69788489788979  0.33326887468747 -0.90049431283128
 1  7.07256843574357 -1.41240943804380 -0.12322060046005
 1  7.83367876627663 -1.61508029832983 -1.83677315321532
 1  8.81005313671367  1.01102169696970 -1.13831661696170
 1  8.25811430953095  0.75395058325833  0.15814152255226
 1  10.22143459055906 -1.06995443914391 -0.91868902650265
 1  8.57237948224823 -1.85855467116712  0.63164152495250
 1  10.62988905830583 -1.86694057525753  0.96867875927593
 1  9.77172038363837 -0.88438966136614  1.90878218331833
 1  10.99323296109611  1.05075783568357 -0.59883705530553
 1  11.08944869146915  1.38878775437544  0.66048992929293
 1  12.42544008620862 -0.97250969046905  1.01444512781278
 1  12.14166632063206 -0.98395661626163 -0.62185518301830
 1  13.52496736673667  1.55120466546655 -0.87285619021902
 1  13.48350039483948  1.39294354565457  1.17524331373137
 1  14.95661708750875 -0.20535805180518 -0.18474666586659
 1  14.83304320422042  0.81483187868787  2.45146791979198
 1  14.23038031153115 -0.96809448134814  2.12965046314631
 1  15.93635066816682 -0.64505808890889  2.05236171387139
 1  15.66746788168817  1.94751474487449 -1.18204817951795
 1  15.79951398399840  2.21377091259126  0.85050337353735
 1  17.65504681978198  0.47809097969797  1.45766595329533
 1  17.78295581978198 -0.06685851665166 -0.37629900730073
 1  17.86554156125613  2.63445999379938 -1.00825381368137
 1  18.55112510861086  2.87848175507551  0.55520219071907
 1  20.00582314351435  0.84035688188819  0.70554390519052
 1  19.50087840584058  1.03588863846385 -2.25856798199820
 1  20.90786507650765 -0.03337513931393 -1.72459659305931
 1  19.36829955695569 -0.15125284368437 -1.59343741844184
 1  20.81886866546655  2.76057563666367  0.68721947554755
 1  21.84156189648965  2.46814339703970 -0.80787350235023
 1  20.40588724162416  3.43963145034503 -1.11755655195519
 1 -0.83690931603160 -4.53132588198820  2.65069341734173
 1 -2.12210189118912 -4.34489176287629  3.85085572217222
 1 -1.13086710001000 -3.19221769886989  3.38206235943594
 8 -11.47687606190619  3.90555535473547 -0.65128694239424
 1 -12.68291880338034  2.13104434453445 -1.44410501550155

