%nproc=4
%Mem=4GB
# td=(NStates=1) iop(3/107=0140000000,3/108=0140000000) iop(3/107=0140000000,3/108=0140000000) CAM-B3LYP/6-31G(d,p) 

TD

0 1
12 -5.70223172977298  1.22173704800480  0.12754135933593
 6 -4.95734612181218 -2.09333779707971 -0.40678754555456
 6 -3.34348313741374  1.21622190699070  2.71681705500550
 6 -6.16037483318332  4.54167743194319  0.67189739853985
 6 -8.01941770887089  1.18678952965297 -2.36892456595660
 7 -4.36618087138714 -0.26723491529153  1.07799913871387
 6 -4.28062158965897 -1.62950665226523  0.71397374697470
 6 -3.20331345584558 -2.34706800960096  1.52199656335634
 6 -3.00431360236024 -1.31474436533653  2.67686424252425
 6 -3.60344777217722 -0.01485411311131  2.08643322852285
 6 -3.73411645104510 -1.73687712911291  3.94379707910791
 6 -1.94348954215422 -2.74710211951195  0.75876118161816
 6 -0.90841248474848 -3.58082566316632  1.55162875087509
 6  0.20252535303530 -3.99503334403440  0.71423961866187
 8  0.53855391969197 -3.54891220482048 -0.38308454265427
 8  0.94243108880888 -4.92985260256026  1.34546915421542
 7 -4.82293310961096  2.62879225612561  1.45230546224622
 6 -4.00743283308331  2.41144856655666  2.43011361466147
 6 -3.72741224492449  3.63587208940894  3.11503205940594
 6 -4.51681223392339  4.66355788408841  2.55286455775578
 6 -5.25087119131913  3.94755285048505  1.51630772307231
 6 -2.75578094119412  3.76002337813781  4.28573276267627
 6 -4.65289181978198  6.10309773027303  2.97346685148515
 8 -4.05446549454946  6.59348723672367  3.90334423432343
 7 -6.85302910281028  2.56911680748075 -0.60899255555556
 6 -6.90942365716572  3.89831944914491 -0.34941663036304
 6 -7.86820200660066  4.59660638543854 -1.15172928242824
 6 -8.36733618691869  3.71479840974097 -2.00995994039404
 6 -7.79872876337634  2.38910491929193 -1.70122606910691
 6 -8.23074606550655  6.03569347874788 -1.14045355415542
 6 -9.23672803610361  3.95609600780078 -3.19058369116912
 6 -8.71250270397040  4.14686283248325 -4.56927333133313
 7 -6.41334975397540 -0.17162217991799 -1.07303239523952
 6 -7.41375090469047 -0.03384945354535 -2.12031624232423
 6 -7.60909841704170 -1.28586028962896 -2.74622714531453
 6 -6.67232678147815 -2.19052862466247 -2.10716688238824
 6 -5.98685710111011 -1.44617818291829 -1.08717484788479
 6 -8.58967442524252 -1.61773189918992 -3.84418131433143
 6 -6.16480014711471 -3.53125870977098 -2.03127668276828
 8 -6.48707310281028 -4.50152785118512 -2.71074733983398
 6 -5.09871843394339 -3.49825787838784 -0.97975029482948
 6 -5.27900537793779 -4.63536897799780  0.03336700850085
 8 -5.78089386098610 -4.45512452055206  1.11906827022702
 8 -4.94541423962396 -5.78242943934393 -0.43285643024302
 6 -5.18441600580058 -6.93803565686569  0.40919274907491
 6  2.23534450765076 -5.21490261046105  0.68995294969497
 6  3.30410494549455 -4.21074123502350  1.07965586538654
 6  4.04203359355936 -3.36732960306031  0.23422705770577
 6  3.56132047094709 -3.25699064036404 -1.19785929042904
 6  5.10630705650565 -2.45433048064807  0.76462026082608
 6  6.51546641794179 -2.81491441664166  0.13327479487949
 6  7.61956728032803 -1.87296665216522  0.50551624212421
 6  9.03492431373137 -2.07132196579658  0.03201541904190
 6  9.63722010371037 -3.46676731713171  0.44769131143114
 6  9.92514309340934 -0.88353859125913  0.44009652515251
 6  11.27567486988699 -0.76470607750775 -0.39610837703770
 6  12.20879856845684  0.40963559105911  0.07535438303830
 6  13.51200365616562  0.52404727462746 -0.76510127332733
 6  14.46097439643964 -0.66694609720972 -0.55302945384538
 6  14.20365630523052  1.84326049764977 -0.39995925072507
 6  15.50681487188719  2.20240826902690 -1.17261225622562
 6  15.94874745914591  3.58881363416342 -0.75986659985999
 6  17.35873112221222  3.92780062166217 -1.25630956615662
 6  17.42497508720872  4.13070796249625 -2.82193441764176
 6  17.94873427952795  5.20814607990799 -0.67009646854685
 1 -2.68237396019602  1.39421369676968  3.49790025842584
 1 -6.30586856565657  5.50362574297430  0.63818280998100
 1 -8.76231663886389  1.20670097299730 -3.09168464726473
 1 -3.67078814361436 -3.26601191659166  1.73361142194219
 1 -1.77802492639264 -1.12710037163716  2.74593586968697
 1 -3.19139891899190 -2.60852401360136  4.39581312531253
 1 -3.97390818351835 -0.96782668706871  4.67369939973997
 1 -4.83184569626963 -2.02576165706571  3.71068501900190
 1 -2.20654596829683 -3.18403792109211 -0.31771239503950
 1 -1.29333716611661 -1.79372848914891  0.62754087568757
 1 -0.44815024852485 -3.14341563716372  2.30041426012601
 1 -1.34371909350935 -4.55880301150115  1.89793159115912
 1 -1.69642975677568  3.45633515791579  4.24043995369537
 1 -2.90553154325433  4.68857606360636  4.66566282398240
 1 -3.29134212921292  3.15486648414841  5.16261126712671
 1 -5.34046711061106  6.84870906530653  2.38887420882088
 1 -9.83107224072407  3.07873853095310 -3.23013626532653
 1 -9.78007880578058  5.11267511161116 -3.12085237593759
 1 -9.40113991379138  4.21503991799180 -5.38011321362136
 1 -8.09617912731273  5.19987973337334 -4.68780873587359
 1 -8.00981083008301  3.29282864166417 -4.72927285208521
 1 -8.43279086868687 -0.95756629952995 -4.65052605090509
 1 -8.66078706170617 -2.66857026212621 -4.05911854885488
 1 -9.57099717921792 -1.46118294169417 -3.43845075177518
 1 -4.15769312671267 -3.63438826542654 -1.42419570647065
 1  2.71006213921392 -6.12358030103010  1.25502145904590
 1  1.94933567696770 -5.35156213231323 -0.26347979757976
 1  3.61255337763776 -4.04172345414541  2.12944795239524
 1  2.60423541024103 -3.79790541164117 -1.27218975997600
 1  3.69953456675668 -2.19736329562956 -1.53295576607661
 1  4.25629780378038 -3.71652538173817 -1.85210413631363
 1  4.82413245414541 -1.40682710671067  0.44756664016402
 1  5.17142566986699 -2.52162379477948  1.56880176047605
 1  6.74658218491849 -3.89436262836284  0.55030291429143
 1  6.51959211961196 -2.61917952695270 -0.85773636913691
 1  7.29049798109811 -0.80509383448345  0.17774502000200
 1  7.69554165706571 -1.80691727482748  1.57858224352435
 1  8.86438054735474 -1.89152742794279 -1.17287062516252
 1  9.03996851555156 -4.37178594999500  0.19121532913291
 1  10.69879922072207 -3.59157335943594  0.13088297479748
 1  9.65723478487849 -3.35675676717672  1.56143658635864
 1  9.26143529412941  0.06613233943394  0.39841520532053
 1  10.22894299179918 -0.86704323822382  1.45374491449145
 1  11.78127326862686 -1.57884791669167 -0.33773814701470
 1  11.02672875957596 -0.75906881178118 -1.43509484308431
 1  11.70464149764977  1.34127855705571 -0.09503905910591
 1  12.39676449974997  0.53125431683168  1.22366064626463
 1  12.99570637133713  0.42576700900090 -1.78911114981498
 1  14.92033137143714 -0.70173838653865  0.46266194619462
 1  13.93121869286929 -1.55558457475748 -0.95645196669667
 1  15.49218020642064 -0.32085528372837 -1.03452034453445
 1  13.56000419461946  2.79012363146315 -0.43100488818882
 1  14.40034673497350  1.56532682188219  0.69666688058806
 1  16.24977663346334  1.39324793749375 -0.76801329202920
 1  15.35707129052905  2.10850476327633 -2.36300768046805
 1  15.30980238483848  4.36704208220822 -0.83883588168817
 1  15.86945971607161  3.70136677807781  0.28978887928793
 1  17.93762744414441  3.18228972017202 -1.16557563716372
 1  16.56770749114911  4.85478200710071 -3.16635899569957
 1  18.33677960146015  4.40841035433543 -3.25877048214821
 1  17.28510871107111  3.14946601660166 -3.30036807140714
 1  17.89201524872487  5.11015223272327  0.36435810001000
 1  19.09303682598260  5.30499465166517 -0.79331624602460
 1  17.35514706560656  6.10779028212821 -1.08572263356336
 1 -4.97852315371537 -7.91590102320232 -0.14630816851685
 1 -6.20913534383438 -7.09406649324932  1.00863437093709
 1 -4.67300546914691 -7.04117569316932  1.35385984258426
 8 -7.86595418701870  6.82522902370237 -0.43009079307931
 1 -9.06792508960896  6.38537418231823 -1.85337101990199

