%nproc=4
%Mem=2GB
# td=(NStates=1) iop(3/107=0140000000,3/108=0140000000) iop(3/107=0140000000,3/108=0140000000) CAM-B3LYP/6-31G(d,p) 

TD

0 1
12 -6.80940351245125  0.58518766286629 -0.00233261376138
 6 -4.61546865336534 -2.06781520332033  0.23237351435144
 6 -4.37319913531353  2.65189682278228  0.90808368996900
 6 -8.96506921162116  3.28583260736074 -0.31164066576658
 6 -9.45471356895690 -1.71946497609761 -0.48732879157916
 7 -4.73887895979598  0.32851224892489  0.45971500360036
 6 -3.98223548914892 -0.94410411721172  0.47918847424742
 6 -2.51643506210621 -0.73333509270927  0.82948501080108
 6 -2.42079204500450  0.83147329612961  1.16038820132013
 6 -3.89280554345435  1.35981606680668  0.81401617631763
 6 -2.09487577327733  1.23104490039004  2.55286984978498
 6 -1.57307605600560 -1.02427499089909 -0.37883655735574
 6 -0.11209932823282 -1.13184489108911  0.10729980348035
 6  0.82713379257926 -1.20043728062806 -1.10067824162416
 8  0.99664973307331 -0.59933254575458 -2.14726571677168
 8  1.63649393599360 -2.39897019561956 -0.65841076357636
 7 -6.64102584478448  2.58545891589159  0.14671841974197
 6 -5.52201276217622  3.10637928112811  0.54286058225823
 6 -5.75172938813881  4.68160784558456  0.59250411901190
 6 -7.03917463086309  4.94635072557256  0.24805138843884
 6 -7.70254195809581  3.63467227562756  0.02098693009301
 6 -4.74470939123912  5.59501693219322  1.04610227822782
 6 -7.67802936423642  6.20969788988899  0.08813833753375
 8 -7.22706662286229  7.37766938353835  0.04009186598660
 7 -8.76353990749075  0.67427828702870 -0.27229987908791
 6 -9.50472414481448  1.89306404170417 -0.42802385468547
 6 -10.84745137543754  1.69923979507951 -0.72690847204721
 6 -11.10920527802780  0.27882878727873 -0.72424327982798
 6 -9.78754041734173 -0.35160332353235 -0.58304038073807
 6 -11.90272704800480  2.67580377347735 -0.86673132393239
 6 -12.28522164266427 -0.57855141744174 -1.00929906360636
 6 -12.45843270537054 -0.92394455965597 -2.49935272997300
 7 -6.98058454135414 -1.39510207150715 -0.05933857835784
 6 -8.14199686128613 -2.24929492619262 -0.29275247324732
 6 -7.79988757385739 -3.67185450785078 -0.27563857395740
 6 -6.47650327152715 -3.65030419131913  0.04325606500650
 6 -6.09351564026403 -2.28727754225423  0.06146233053305
 6 -8.62632115561556 -4.86662404020402 -0.41552436833683
 6 -5.26070227472747 -4.39846564466447  0.14834285998600
 8 -5.18153990269027 -5.63773431173117  0.23002350895089
 6 -4.10096382178218 -3.37997855705571  0.27952259945995
 6 -3.34669818071807 -3.76410258575858  1.72480219321932
 8 -3.79794503460346 -3.77963469826983  2.83383205300530
 8 -1.96338801370137 -3.66816312161216  1.55844578377838
 6 -1.01436995909591 -3.86418150825083  2.86540096529653
 6  2.99460135293529 -2.44597977487749 -1.43959520362036
 6  4.03569733713371 -1.55752275337534 -0.70348588088809
 6  5.06374713011301 -0.89651652305231 -1.39658586018602
 6  5.39214319811981 -1.48658179287929 -2.79236621882188
 6  6.01937576217622  0.08689103620362 -0.83899045754575
 6  7.44083277727773 -0.87447322942294 -0.58768550585059
 6  8.45602816311631  0.17992362696270 -0.14400288078808
 6  9.74866795619562 -0.58287520782078  0.21932362666267
 6  9.70131764806480 -1.27110592529253  1.44984935373537
 6  11.01510384038404  0.51833668786879  0.31712655105511
 6  12.31776704720472  0.02887419461946  0.40901921312131
 6  13.41984352695270  0.99020629532953  0.45004790319032
 6  14.86169250445045  0.22693597169717  0.37971263336334
 6  15.17938292639264 -0.50804308480848  1.56508643264326
 6  15.98604823322332  1.26724162616262  0.11049425472547
 6  17.54655413351335  0.68814403880388 -0.13663053695370
 6  18.41955150255026  1.94862205340534 -0.25614576137614
 6  19.89520172127213  1.54374286908691 -0.41704178787879
 6  19.99055885718572  0.87546297659766 -1.69249504070407
 6  20.91881905080508  2.59305072307231 -0.29657475337534
 1 -3.72728336663666  3.27332858385839  1.31082048374837
 1 -9.61867585008501  4.03352243734374 -0.81077471137114
 1 -10.22632512411241 -2.30045044434443 -1.06293911981198
 1 -2.12424494129413 -1.28704632243224  1.66908695699570
 1 -2.05661500010001  1.31756223242324  0.37681413481348
 1 -1.21573295699570  0.64920323472347  3.09063977507751
 1 -1.89249742364236  2.53258183458346  2.96627274507451
 1 -2.97837016951695  0.92868075337534  3.49929579867987
 1 -2.05782480278028 -1.72998427142714 -0.93675146194619
 1 -1.43779894889489 -0.14097557045705 -0.93946373717372
 1 -0.04327632933293 -0.30841227452745  0.61482734793479
 1 -0.08721244104410 -2.10446678047805  0.58824905700570
 1 -3.49647417781778  5.82918074597460  0.24232919061906
 1 -5.22671295189519  6.44327700360036  1.04514142024202
 1 -4.17732876107611  5.38662762376238  2.07063483578358
 1 -8.79439245334534  6.12050715991599 -0.20967734353435
 1 -12.30825037863787 -1.35456632413241 -0.69681410861086
 1 -13.22144835983598 -0.18041164136414 -0.46732436883688
 1 -13.12239006210621 -1.57187930333033 -2.84332144924493
 1 -12.51518848264827  0.21351877337734 -3.03955612511251
 1 -11.46119294369437 -1.39244256125612 -2.99891649904990
 1 -9.07659684298430 -4.51927848344835 -1.40159238723872
 1 -8.01449666426643 -5.88750876347635 -0.44169382128213
 1 -9.42639991999200 -5.11566352755276  0.27439204870487
 1 -3.45184476587659 -3.28481220612061 -0.57064537133713
 1  2.82979459485949 -3.57141441524153 -1.70914663176318
 1  2.72434672347235 -1.75746166116612 -2.58440867616762
 1  3.95881320902090 -1.33721647004700  0.54090769236924
 1  4.67775083208321 -1.00502397489749 -3.54396451145114
 1  6.54095767416742 -1.19090776617662 -3.43464468836884
 1  5.43758758615862 -2.71754436873687 -2.59726391019102
 1  5.92464288618862  1.01026636403641 -1.51832444964496
 1  5.38838394779478  0.22110765856586  0.44393012961296
 1  7.21406258515851 -1.99467766486649  0.11858357995800
 1  7.85298069646965 -1.47538632893289 -1.52207168306831
 1  8.54407653905391  1.02071266606661 -0.83887667296730
 1  8.32177067516752  0.91472666086609  0.68531423982398
 1  10.10036248334833 -1.35757320102010 -0.32891004860486
 1  8.84714695899590 -1.82166098179818  1.34208256905691
 1  10.61989805920592 -2.11562544374437  1.53639553095310
 1  9.33169638123812 -1.00849207160716  2.37072837793779
 1  10.65682932073207  1.05422818271827 -0.08761593319332
 1  10.97638738533853  0.98915779137914  1.29384326462646
 1  12.19837737993799 -0.66120856035604  1.03217690099010
 1  12.46371852585259 -0.71531975257526 -0.53034603210321
 1  13.49469433943394  1.69302884788479 -0.50300920552055
 1  13.53913595839584  1.70083433473347  1.12431822122212
 1  15.10180160596060 -0.18649616561656 -0.56984517571757
 1  15.19979987988799 -0.10069967446745  2.28886165916592
 1  14.44874214771477 -0.94674234613461  1.60429792789279
 1  16.25326235933593 -1.22111569466947  1.86182265996600
 1  15.84768590349035  1.73573356675668 -0.91426140084008
 1  15.86938097069707  2.06686622212221  1.04589291249125
 1  18.04407572267227  0.14803797439744  0.89129931663166
 1  17.76868439263926  0.01213938313831 -1.08417979537954
 1  18.01429643674367  2.51746829462946 -0.95241823012301
 1  17.79338933503351  2.69981388828883  0.49989666016602
 1  20.03601616281628  0.64720756695670  0.16057940874087
 1  19.56619493749375  1.23892894249425 -2.70592271747175
 1  20.77649193919392  0.68239643784378 -1.97884201760176
 1  19.19465219221922  0.09308158975898 -1.70791886658666
 1  21.09010578917892  2.93500307940794  0.58472922652265
 1  21.79908764906491  2.40948753145314 -0.47534024902490
 1  20.70937759065907  3.31342883008301 -0.83270806710671
 1  0.20157453235324 -4.26645939533953  2.62344069206921
 1 -1.46046572757276 -5.04196146984699  3.42128276487649
 1 -0.86165017831783 -2.62578105520552  3.47869202240224
 8 -11.70830920522052  3.88546334553455 -0.85604741844184
 1 -12.77416792829283  2.33126436653665 -1.16821742674267

