%nproc=4
%Mem=2GB
# td=(NStates=1) iop(3/107=0140000000,3/108=0140000000) iop(3/107=0140000000,3/108=0140000000) CAM-B3LYP/6-31G(d,p) 

TD

0 1
12 -6.63540611271127  0.58911805590559  0.02744036353635
 6 -4.63973107960796 -2.08684710651065  0.52866314331433
 6 -4.05200701610161  2.69326095919592  0.89759264086409
 6 -9.12787549224923  3.19038306240624 -0.15996549824982
 6 -9.35541363896390 -1.57577060666067 -0.85449550825083
 7 -4.68126319821982  0.35592499019902  0.63251228332833
 6 -4.03049031463146 -0.81480118691869  0.75424597999800
 6 -2.71012443104310 -0.69876163536354  1.16764882718272
 6 -2.48401836763676  0.89055920472047  1.35847801030103
 6 -3.82444870777078  1.35033511871187  1.01714648934893
 6 -2.04438072377238  1.31780357625763  2.72019658245825
 6 -1.69742849124912 -1.27943050645064  0.14356568286829
 6 -0.18613673197320 -1.40952265886589  0.61865093859386
 6  0.85791687088709 -1.43895113201320 -0.52027020082008
 8  0.69571964006401 -0.94818743124312 -1.51794278447845
 8  2.00405069166917 -2.22416271487149  0.09786486398640
 7 -6.61680342254225  2.63236360636064  0.29422317021702
 6 -5.32436299719972  3.27573621682168  0.58786508270827
 6 -5.74008822402240  4.71865154995499  0.80911578017802
 6 -7.09372008540854  4.97870396089609  0.33232981628163
 6 -7.70905260916092  3.54171297969797  0.18642347374737
 6 -4.65481040134013  5.75100253075307  1.29955762376238
 6 -7.78721028232823  6.10260718081808  0.18785830953095
 8 -7.22390630683068  7.21229284588459  0.29779763656366
 7 -8.71536509000900  0.70744160336034 -0.46679932903290
 6 -9.48027169956996  1.92937767306731 -0.50820187248725
 6 -10.90061669196920  1.69551942304230 -1.05920170137014
 6 -10.89943430093009  0.25710661506151 -1.08858971447145
 6 -9.55359702300230 -0.32855101830183 -0.83418549524953
 6 -11.97834460976098  2.63167936103610 -1.17439209000900
 6 -12.21117423792379 -0.36331989428943 -1.50731886558656
 6 -12.28572543464347 -0.59280144534453 -3.05936873157316
 7 -6.97447393029303 -1.46609917121712 -0.06348899339934
 6 -7.97187984958496 -2.23730372707271 -0.58993219121912
 6 -7.67974555965597 -3.58616593899390 -0.75131614171417
 6 -6.37967358855886 -3.64476363726373 -0.37701596219622
 6 -6.10924721342134 -2.29720853535353  0.11687787208721
 6 -8.56141466496650 -4.66913429122912 -1.09037185308531
 6 -5.13629983448345 -4.48818461656166 -0.10528250255025
 8 -4.92955470417042 -5.64451498979898 -0.16914640804080
 6 -4.06741046644664 -3.52149270847085  0.44571921912191
 6 -3.53249676057606 -3.69987616311631  1.89346905990599
 8 -4.05495073517352 -3.91901863666367  2.81852052185219
 8 -2.31911358625863 -3.71951825712571  1.89146908610861
 6 -1.66223474557456 -4.11127621772177  3.14807923312331
 6  2.95882777557756 -2.33097827472747 -0.92226347044704
 6  4.18500226762676 -1.39629663076308 -0.63301883418342
 6  5.08801955735573 -0.97880475187519 -1.54819102070207
 6  5.39852383618362 -1.99543267796780 -2.78721570377038
 6  6.13660748534854 -0.06347400030003 -1.12719927842784
 6  7.34625331933193 -0.80874665676568 -0.64194093139314
 6  8.54498705900590  0.22580821542154 -0.43733221372137
 6  9.75207829722972 -0.44841176147615  0.20710240454045
 6  9.69449696599660 -1.16844565926593  1.73404777357736
 6  10.98100043004301  0.33652850705070  0.28925376377638
 6  12.34439971047105 -0.16066475927593  0.36744505570557
 6  13.43119466206621  1.08476575127513  0.53618651705171
 6  14.93243957915792  0.46727000510051  0.47292195429543
 6  15.19605459355936 -0.13139542004200  2.12331225522552
 6  15.94193382178218  1.56401130313031  0.16827003230323
 6  17.33989346744674  0.78906413081308 -0.31525839973997
 6  18.30549009640964  2.04032122332233 -0.85173532033203
 6  19.68708090919092  1.43155164996500 -1.00086016971697
 6  19.93408320962096  0.71353678397840 -2.37584337553755
 6  20.66093326222622  2.55481689968997 -0.93533862976298
 1 -2.87496813511351  3.14425567656766  0.96448585028503
 1 -9.89211319381938  3.97062614771477 -0.07011064496450
 1 -10.27225971757176 -2.32567296659666 -1.02667549344934
 1 -2.42058457525753 -1.26256387418742  1.97508755705571
 1 -1.48499783838384  1.10776125232523  0.65154160756076
 1 -1.46788817251725  0.29158747314732  3.05138584968497
 1 -1.50451862576257  2.55781435783578  2.50680679847985
 1 -2.95350768326833  1.72415030033003  3.16388225732573
 1 -1.86639565986599 -2.17725899889989 -0.45731351815182
 1 -1.50836600560056 -0.49962143504350 -0.62565235603560
 1  0.03190118841884 -0.51071250455046  1.23929979517952
 1 -0.05818953875388 -2.17079341314131  1.36887711981198
 1 -3.58431296169617  5.62098992689269  0.79511446914691
 1 -5.06940722132213  6.90090276617662  0.99085599169917
 1 -4.64074510271027  5.75153411441144  2.25022279457946
 1 -9.08522153625363  5.78238334753475 -0.14983135893589
 1 -12.16123567716772 -1.30834170167017 -1.19209363656366
 1 -13.01371758675868  0.21191759155916 -1.17653528992899
 1 -13.42473029612961 -0.75100721612161 -3.27321443854385
 1 -12.15920288408841  0.44089151065106 -3.64339650915092
 1 -11.75136196059606 -1.34770808780878 -3.44179078647865
 1 -9.57399658295830 -3.94548110371037 -1.75301752975298
 1 -7.86226144074408 -5.83632364496450 -2.02620227212721
 1 -9.09951723172317 -5.15093705490549 -0.24485987648765
 1 -3.17502708410841 -3.44178790369037 -0.36792509930993
 1  3.20794240964096 -3.35590286408641 -0.63246896399640
 1  2.61196548534853 -2.41923783878388 -2.09761999729973
 1  4.13665099279928 -0.34284703310331  0.24032763436344
 1  4.67143020002000 -1.89003247574758 -3.41907202220222
 1  6.46357993639364 -1.52510118551855 -3.12420364426443
 1  5.64609843724372 -3.10084269856986 -2.32951713551355
 1  6.55306572847285  0.74933027042704 -2.08984160136014
 1  5.56046115551555  0.58595414321432 -0.27384164756476
 1  7.24034521342134 -1.51686988408841  0.18906062766277
 1  7.58917431583158 -1.54057284758476 -1.56494597049705
 1  8.77043917531753  0.78912950775078 -1.68098088338834
 1  8.05363386148615  1.19048423662366  0.22513822222222
 1  10.06692914001400 -1.42308975267527 -0.28115527312731
 1  9.33645588988899 -2.08700751645164  1.62381074187419
 1  10.88176424582458 -1.51068494969497  2.28922081348135
 1  9.10173338493849 -0.42399362176218  2.36125743084308
 1  10.69778341614161  1.31518427832783 -0.27791496309631
 1  11.11905165176518  0.81070994659466  1.14192807310731
 1  12.48452599479948 -0.84315675517552  1.51851553485349
 1  12.56225837983798 -0.94081230183018 -0.27499049654966
 1  12.97696256625663  1.54057360236024 -0.58773767836784
 1  13.05629767456746  1.75189944124412  1.26565235463546
 1  15.23706513231323 -0.19965748174817  0.08571037983798
 1  15.20622052195220  0.81020141564156  3.01174394739474
 1  14.48111538503850 -0.84728240014001  2.30137763586359
 1  16.33327036013601 -0.62882646574657  2.16312278997900
 1  15.74810594549455  2.24965495889589 -0.74994496919692
 1  16.08257228982898  2.78740827632763  0.89948827202720
 1  18.07734905000500  0.43717688828883  0.41285147184719
 1  17.16415393959396  0.14350251945194 -1.24564594199420
 1  18.13233824092409  2.50919746754675 -1.60840382868287
 1  18.41325132123212  2.83956786368637  0.13002967346735
 1  19.89836239743975  0.67044989118912 -0.40188683788379
 1  19.81216953495349  1.23485853545355 -3.46772889808981
 1  20.67558184818482  0.14377257545755 -1.87960209360936
 1  19.52054478147815  0.03747602920292 -2.46940501520152
 1  20.28827560616061  2.93131271037104  0.02063281688169
 1  21.85739347964797  1.85255183788379 -1.05363807880788
 1  20.49944659755975  3.44170165736574 -1.97560235653565
 1 -0.56462208730873 -4.59662241164116  2.95446379437944
 1 -2.26089577057706 -4.83584085778578  3.23955459205921
 1 -1.79483349664966 -3.45435391249125  4.05680983418342
 8 -11.69363773807381  3.88082288148815 -0.91658347204720
 1 -12.80537104860486  2.15082632273227 -1.45265587058706

