%nproc=4
%Mem=2GB
# td=(NStates=1) iop(3/107=0140000000,3/108=0140000000) iop(3/107=0140000000,3/108=0140000000) CAM-B3LYP/6-31G(d,p) 

TD

0 1
12 -6.80991356345635  0.60409955405541  0.30702832233223
 6 -4.55733283978398 -2.03712213401340  0.41556183318332
 6 -4.40063187858786  2.63235486858686  1.21692457405741
 6 -8.95834853955396  3.13692771687169 -0.29422892459246
 6 -9.31030912851285 -1.59977300690069 -0.82292235093509
 7 -4.85039011091109  0.34644404210421  0.72132116421642
 6 -4.05137240284028 -0.80449015581558  0.83274382978298
 6 -2.59949336793679 -0.52134389358936  1.12322438473847
 6 -2.59187915371537  1.03659380818082  1.31705386788679
 6 -4.03033929682968  1.46565665086509  1.03569834453445
 6 -2.34955124082408  1.14112590849085  2.69248381118112
 6 -1.68304705310531 -0.90187275067507 -0.00667934163416
 6 -0.18174629292929 -0.82382408900890  0.46346542004200
 6  0.77144822402240 -1.02857009390939 -0.69164733853385
 8  0.71438150625063 -0.62621523402340 -1.87846883708371
 8  1.78060834743474 -1.85958625722572 -0.27997291979198
 7 -6.67218896109611  2.37712808280828  0.33767751565156
 6 -5.61439200010001  3.13679232243224  0.70511680788079
 6 -6.00817503270327  4.74053373817382  0.71989685828583
 6 -7.21714242764276  4.84830092059206  0.21709829312931
 6 -7.73546525042504  3.49739854825483  0.06654148554855
 6 -4.91092601290129  5.77929536003600  1.05259292729273
 6 -8.08256981828183  6.07884480458046  0.39397892159216
 8 -7.48361227742774  7.26590820742074  0.41633949074908
 7 -8.72129568306831  0.71636249544954 -0.54050669976998
 6 -9.41402507490749  1.89607434273427 -0.58080913321332
 6 -10.84847147744775  1.56337620872087 -0.89950573177318
 6 -10.93562792029203  0.09817072147215 -1.03579443494349
 6 -9.70310197349735 -0.39874803800380 -0.76482855955596
 6 -11.84860163546355  2.53644983808381 -1.23184783558356
 6 -12.11166428692869 -0.54562812511251 -1.26764489818982
 6 -12.46375323742374 -0.59084124932493 -2.77270006470647
 7 -6.91295777867787 -1.46737929922992 -0.08388103260326
 6 -8.05449811141114 -2.26328632533253 -0.50987418541854
 6 -7.58442602770277 -3.61043836623662 -0.52546355645565
 6 -6.36262188338834 -3.63121228212821  0.04112585198520
 6 -5.92044833353335 -2.32947176167617  0.09716590089009
 6 -8.37501602510251 -4.74500187798780 -0.82115493139314
 6 -5.18742494699470 -4.52819861796180  0.15829385508551
 8 -4.98641038973897 -5.63311384968497  0.01590209680968
 6 -3.95660938633863 -3.58777933713371  0.46295094229423
 6 -3.40440395129513 -3.82595877137714  1.88439815281528
 8 -3.80396563666367 -4.04861159595960  3.01447011681168
 8 -1.98135981088109 -3.67271357665767  1.69105904510451
 6 -1.02605112721272 -4.05178026812681  2.73334775997600
 6  2.90092198499850 -2.23741891879188 -1.18830007410741
 6  4.04610837823782 -1.32989999109911 -0.82313784608461
 6  5.06227698309831 -1.05633250465047 -1.79687588918892
 6  5.47714169796980 -1.69678281298130 -3.05659264146415
 6  6.08356218081808 -0.03433108600860 -1.15211176967697
 6  7.44328302230223 -0.75819160126013 -0.82808954625463
 6  8.58228078837884  0.36234186878688 -0.47489597009701
 6  9.90637372677268 -0.28750567086709  0.02627432173217
 6  9.49989750605060 -0.86576539123912  1.42234660346035
 6  11.05267759775978  0.80977583178318  0.12699753815382
 6  12.39027429792979 -0.03358205100510  0.25102341354135
 6  13.56771831443144  0.94495176987699  0.22287518591859
 6  14.98246458165817  0.34467774587459  0.35670033213321
 6  15.24929991809181 -0.05163744424442  1.81678160216022
 6  15.88421805020502  1.31028593059306 -0.00524731943194
 6  17.47282676077608  0.49537476187619  0.16745987208721
 6  18.55102464986499  1.71707889908991 -0.24672481928193
 6  19.91185338643864  1.02680117491749 -0.64786487018702
 6  19.99193899519952  0.16611204150415 -1.90363615481548
 6  20.83391055995600  2.27970938893889 -0.44589968586859
 1 -3.42182282058206  3.57646889788979  1.50935033673367
 1 -9.79346332883288  3.70356944204421 -0.34138777267727
 1 -10.47994048564856 -2.46346674597460 -0.88942176807681
 1 -2.09275179197920 -1.23392100990099  1.93298334663466
 1 -1.78644798339834  1.61877235343534  0.73280973437344
 1 -1.64441582528253  0.60790910531053  3.25521623272327
 1 -1.95074324822482  2.27159573597360  2.83322944074407
 1 -2.93902623512351  0.62981086638664  3.40896676577658
 1 -1.83732275257526 -2.05557683068307 -0.38281606840684
 1 -1.73420858985899 -0.19307077997800 -0.69707949874988
 1  0.04658265656566  0.05250381708171  1.09612547774777
 1 -0.06415013481348 -1.64877121092109  1.38363859595960
 1 -4.06949147954795  5.76191401930193  0.21546650435043
 1 -5.47254753535354  6.74692736863686  1.40170707680768
 1 -4.20680170837084  5.31148010901090  1.89915768806881
 1 -9.26516953105311  6.10621573077308  0.36158978317832
 1 -12.03071262486249 -1.70747161466147 -0.89026345354536
 1 -13.22188840384038 -0.23502710291029 -0.78888652505251
 1 -13.62083990709071 -0.89097121252125 -2.80032714981498
 1 -12.47457442124212  0.40079750125013 -3.40827299679968
 1 -11.64456128052805 -1.50848416541654 -3.57900450785078
 1 -8.66683586688669 -4.69370592619262 -1.88619084708471
 1 -7.81129634423442 -5.51392140474047 -0.97955760766077
 1 -9.52782006200620 -5.06299826102610 -0.59952534303430
 1 -2.92202178357836 -3.70997472237224 -0.03465177197720
 1  3.03238485388539 -3.62955022882288 -0.94697041414141
 1  2.54863915271527 -2.04142005700570 -2.27559779507951
 1  3.75963329102910 -1.14337708610861  0.07570117171717
 1  4.56689974697470 -1.77148062056206 -3.76333644864487
 1  6.19980355875588 -1.33667234263426 -3.72680390429043
 1  5.72757658505851 -2.69410202450245 -3.05566975077508
 1  6.29370979287929  0.68631396879688 -2.10945356255626
 1  5.61856696609661  0.62978852665266 -0.39398366176618
 1  7.46516769566957 -1.39631782888289  0.15899762136214
 1  7.82896829522952 -1.34211300160016 -1.64639411531153
 1  8.75014714611461  1.33271386618662 -1.23099588488849
 1  7.96323482158216  1.03149833803380  0.28597430583058
 1  10.24930737783778 -0.93411085478548 -0.96800395799580
 1  8.40197244154415 -1.34718353405341  1.29738809960996
 1  10.29501557095710 -1.59664354555456  1.55540743214321
 1  9.53727693929393 -0.37982920532053  2.24163546864686
 1  11.32467610541054  1.34288704860486 -0.83211038263826
 1  10.92607235383538  1.99030790639064  0.93128700900090
 1  12.37642518471847 -0.35691813131313  1.28453213651365
 1  12.76501865586559 -0.96889511011101 -0.53755675317532
 1  13.12594746474647  1.51868141314131 -0.60128903350335
 1  13.62133417821782  1.50261451275127  0.98515430483048
 1  14.99803122892289 -0.63467098309831 -0.33629182038204
 1  15.21344124402440  1.26738713421342  2.23867664066407
 1  14.34425169866986 -1.12614028592859  2.55405290339034
 1  16.04161119421942 -0.69450303340334  1.53352983068307
 1  15.90927206210621  1.86302629602960 -1.04960493519352
 1  15.87312134473447  1.95842537803780  0.67464578777878
 1  17.46424773987399  0.21931510211021  1.08652883958396
 1  17.46138366256626 -0.14843667446745 -0.45500687808781
 1  18.41741674877488  1.85228177597760 -1.18715170347035
 1  18.56437643374338  2.58882278917892  0.37276394689469
 1  19.71989455065507  0.19178202440244  0.23551690249025
 1  19.94707302530253  0.90962601220122 -3.02604472967297
 1  21.04015830583058 -0.27842964476448 -1.88705283868387
 1  19.17080980798080 -0.52820053845385 -2.27922599729973
 1  21.44651142974297  2.36094567366737  0.56034678827883
 1  21.71544928522852  2.18046462916292 -0.83067578257826
 1  20.47996464936493  3.03249073627363 -0.64247904420442
 1 -0.10168579367937 -4.62091484088409  2.08274662266227
 1 -1.54314399539954 -4.89490676437644  3.31105174177418
 1 -0.82049606290629 -3.29525800290029  3.40929508270827
 8 -11.58193656795680  3.70530532973297 -1.24641645534553
 1 -12.70407091859186  2.03854509460946 -1.30631123612361

