%nproc=4
%Mem=4GB
# td=(NStates=1) iop(3/107=0140000000,3/108=0140000000) iop(3/107=0140000000,3/108=0140000000) CAM-B3LYP/6-31G(d,p) 

TD

0 1
12 -5.56652815941594  1.24660953525353  0.23588219341934
 6 -4.98759914711471 -2.14239270257026 -0.23771063786379
 6 -3.27433622272227  1.19269955475548  2.75961133443344
 6 -6.14307310301030  4.51099436363636  0.68824903370337
 6 -8.00741650875088  1.14007485818582 -2.27450512401240
 7 -4.40280453375338 -0.21111930373037  1.04013535233523
 6 -4.30816434393439 -1.66170987258726  0.68797114671467
 6 -3.13623674817482 -2.29791309410941  1.47288165186519
 6 -2.92344551555155 -1.25366825772577  2.58238479457946
 6 -3.56068349574958  0.04693206550655  2.10984556975698
 6 -3.54021706110611 -1.60581402280228  3.93197589698970
 6 -1.96801199439944 -2.66221363066307  0.50240554605461
 6 -1.02647429092909 -3.65217279787979  1.30144373237324
 6  0.15273037353735 -3.89709355005501  0.57048524322432
 8  0.39872993729373 -3.36175348894890 -0.50132636683668
 8  1.00451729742974 -4.72928254555456  1.27100170747075
 7 -4.87818863516352  2.65566494339434  1.41769200090009
 6 -3.87502959275928  2.48312573427343  2.47587819111911
 6 -3.70469997369737  3.72573107530753  3.14628518471847
 6 -4.47018757145715  4.62133366166617  2.49770904220422
 6 -5.27116322052205  3.91636973217322  1.48168426072607
 6 -2.70550591369137  3.77692506830683  4.30444463386339
 6 -4.58229476007601  5.98037545804580  2.98387789258926
 8 -3.77682773077308  6.57995588358836  3.74372827272727
 7 -6.93820762066207  2.57450734653465 -0.65650730703070
 6 -7.01654436923692  3.92461207840784 -0.30867255595560
 6 -7.85644083048305  4.57784450925092 -1.18478258775878
 6 -8.43325277857786  3.62510944084408 -2.04892383678368
 6 -7.79130802130213  2.35445145394539 -1.71443739023902
 6 -8.22964595549555  6.03178308770877 -1.18911842064206
 6 -9.46580094339434  3.82774317251725 -3.14494912771277
 6 -8.82147360106011  4.17329547574757 -4.54634103810381
 7 -6.28905732473247 -0.04639965766577 -1.11856694869487
 6 -7.39725925552555 -0.08388445704570 -2.04284849554956
 6 -7.56654416161616 -1.32234393799380 -2.78876139873987
 6 -6.59310885968597 -2.18510808260826 -2.09140530623062
 6 -5.92193060846085 -1.37796136123612 -1.06792292269227
 6 -8.47679313711371 -1.63625375137514 -3.88580547674767
 6 -6.15102876997700 -3.56758234213421 -1.93499705480548
 8 -6.45142953845385 -4.60293799219922 -2.62777904300430
 6 -4.99073763586359 -3.52475052765277 -0.88256057585759
 6 -5.37451492889289 -4.72312775387539  0.14261793359336
 8 -5.75596136773677 -4.45685469356936  1.27306366976698
 8 -4.94807450565057 -5.93249444584458 -0.33717686228623
 6 -5.26162372657266 -7.00090194349435  0.56012784258426
 6  2.24740571377138 -5.11735285548555  0.64914886928693
 6  3.39098363336334 -4.10370053095310  0.93581148094809
 6  3.98247763796380 -3.27098996909691  0.00766440144014
 6  3.64899923882388 -3.20247518881888 -1.37135664016402
 6  5.20318674447445 -2.51894694229423  0.66238003680368
 6  6.53699857115712 -2.70484340954095 -0.01110964356436
 6  7.63212853645365 -1.86437579307931  0.56880257075708
 6  9.03740456175618 -2.07395222882288 -0.04653243574357
 6  9.51477785948595 -3.41427206760676  0.20988753105311
 6  9.94437501660166 -1.00786102350235  0.44719723522352
 6  11.27507480988099 -0.91153075997600 -0.18575734193419
 6  12.15974366296630  0.30029465696570  0.17521436903690
 6  13.52202465826583  0.56421129102910 -0.55932069526953
 6  14.43426172517252 -0.73930333293329 -0.34864901580158
 6  14.19917585718572  1.81747791939194 -0.08927818261826
 6  15.41246543694369  2.18538656685669 -1.00631562656266
 6  15.94844742914291  3.51317607040704 -0.69480009320932
 6  17.31655690479048  3.89144698629863 -1.29790372557256
 6  17.17052964266427  4.10020491219122 -2.80720294449445
 6  17.80430983708371  5.32720798609861 -0.77965742464246
 1 -2.70655637843785  1.27957223262326  3.45022549094910
 1 -6.42050002880288  5.79873525392539  0.70399939163916
 1 -8.64080448764877  1.20568087098710 -3.22907838663866
 1 -3.55875694049405 -3.28399371477148  1.99992805360536
 1 -1.77648477237724 -0.88842650425043  2.66908818491849
 1 -3.21734151325132 -2.63015617681768  4.27411095509551
 1 -3.13162395509551 -0.92718262266227  4.80078210801080
 1 -4.62572508420842 -1.66818589948995  3.80293424392439
 1 -2.31077639133913 -3.26716623392339 -0.46629725352535
 1 -1.48363619601960 -1.71478059435944  0.10121824342434
 1 -0.69113454695470 -3.36027732333233  2.34763898259826
 1 -1.69768449004900 -4.45417254845485  1.52622442044204
 1 -1.88099821362136  3.23207273167317  3.95431134083408
 1 -2.56839782988299  4.83590079607961  4.48423468116812
 1 -3.33654664966497  3.16105710321032  4.98666367236724
 1 -5.71278434233423  6.40371456585659  2.62049737113711
 1 -9.97911704520452  3.03468412551255 -3.45475872757276
 1 -10.28340913881388  4.70578442254225 -2.99223951465147
 1 -9.92497229702970  4.75786420042004 -5.20490569286929
 1 -8.18918842824282  5.08855860126013 -4.30762071707171
 1 -8.24726457545755  3.21204056285629 -4.95770569536954
 1 -8.25139272887289 -1.26362690559056 -4.81717271557156
 1 -8.43935491849185 -2.85366877197720 -3.90918355535553
 1 -9.48722880238024 -1.21112793619362 -3.77821472817282
 1 -4.17241459885989 -3.96070089668967 -1.44287757465747
 1  2.46534766776678 -6.04646258925893  1.29729568646865
 1  2.02723346674668 -5.27615459155916 -0.44339778937894
 1  3.69717183948395 -3.91532081388139  1.99988499609961
 1  2.56903188988899 -3.28017363846385 -1.36903944494449
 1  3.62995760906091 -2.25453901320132 -1.90176264676468
 1  4.29023119711971 -3.80465419461946 -2.05223414931493
 1  4.88903894479448 -1.38465488948895  0.76289817331733
 1  5.47067559485949 -2.76638827122712  1.89708458875888
 1  6.74938246494649 -3.76490968306831  0.18524640864086
 1  6.42863302370237 -2.74636224522452 -1.20845144064406
 1  7.26735566686669 -0.78588191329133  0.58870611611161
 1  7.64238634153415 -2.14253083618362  1.54350873617362
 1  8.72790689999000 -2.07480575577558 -1.21061439953995
 1  8.73204772347235 -4.21145991739174 -0.15977977037704
 1  10.47361670247025 -3.60921512361236 -0.28948906240624
 1  9.66631569296930 -3.53170426192619  1.35190563326333
 1  9.42357150775078 -0.00740501430143  0.41242660646065
 1  10.10758085558556 -1.19829636353635  1.67394693469347
 1  11.97907304860486 -1.88458849074908 -0.10286465966597
 1  11.12004809150915 -1.19777268216822 -1.34402573617362
 1  11.47302833633363  1.23089751895190  0.02786323112311
 1  12.09214403770377  0.27725891729173  1.35207348754876
 1  13.33366016671667  0.65385981828183 -1.54465670437044
 1  14.68197753605360 -0.80808902160216  0.71625730573057
 1  13.83321889288929 -1.63809282558256 -0.51319764126413
 1  15.48286927532753 -0.67645084328433 -0.83125001750175
 1  13.61227942214222  2.57852247134714 -0.23156494419442
 1  14.78948564886489  1.74309459865987  0.84282149604960
 1  16.06959861566157  1.49720833353335 -0.87221371207121
 1  15.01862744614461  1.98333224602460 -1.94247562726273
 1  15.16648805340534  4.22610798879888 -0.87147914601460
 1  16.14854762486249  3.36894353575358  0.46011591199120
 1  18.06186986838684  3.30783227442744 -0.97148622822282
 1  16.51722244264426  4.83189971887189 -3.10083244304430
 1  18.20529645314532  4.62525203850385 -3.17880248534853
 1  16.82272247244725  3.14634570457046 -3.21091912651265
 1  17.79763581078108  5.25928714621462  0.33754541874187
 1  18.76177369966997  5.54857901010101 -1.19660657505751
 1  17.16238778967897  6.14667417051705 -1.15729979127913
 1 -5.04022932433243 -7.83389282238224  0.03830029232923
 1 -6.46878130843084 -7.12603969056906  0.85928943644364
 1 -4.66593476207621 -6.81141271687169  1.40854531113111
 8 -7.90699829142914  6.85487198799880 -0.32229001300130
 1 -8.77650594769477  6.44863050795079 -2.09002468526853

