%nproc=4
%Mem=4GB
# td=(NStates=1) iop(3/107=0140000000,3/108=0140000000) iop(3/107=0140000000,3/108=0140000000) CAM-B3LYP/6-31G(d,p) 

TD

0 1
12 -5.69424093069307  1.21052592689269  0.23678228342834
 6 -4.92590297749775 -2.10939940324032 -0.36317318411841
 6 -3.36807559665967  1.27221750655065  2.74828020132013
 6 -6.33378217391739  4.57131039523952  0.67204741354135
 6 -7.98331409850985  1.11913276397640 -2.28756643014301
 7 -4.38277253055306 -0.22225041684168  1.03883522232223
 6 -4.22599612711271 -1.59583328492849  0.69772212181218
 6 -3.24854797929793 -2.31536483928393  1.50433479717972
 6 -2.96502967396740 -1.26136902780278  2.67237379347935
 6 -3.59094652205221 -0.01501412911291  2.16860144534453
 6 -3.56719975937594 -1.73165660706071  3.97275997539754
 6 -1.97877307050705 -2.71973938323832  0.72172747824782
 6 -1.03711535503550 -3.66666424702470  1.48837242524252
 6  0.22315741624162 -3.92281612231223  0.60547874257426
 8  0.38508857315732 -3.36195350895090 -0.45284151835184
 8  1.08897574327433 -4.80962057935794  1.18054266156616
 7 -4.87653847014701  2.65735511241124  1.54103433513351
 6 -3.91037312711271  2.46394381608161  2.48990959425943
 6 -3.65442494619462  3.70215871807181  3.10295085128513
 6 -4.49113966666667  4.67624915321532  2.56722599389939
 6 -5.36465256945695  4.00048814401440  1.48686477877788
 6 -2.71938730183018  3.85855323112311  4.25299948934894
 6 -4.70244677527753  6.10028744924492  2.88221772657266
 8 -4.10465051305130  6.58002589058906  3.83175707560756
 7 -6.86340013991399  2.61699159495950 -0.67016867316732
 6 -7.02789550435044  3.90378999619962 -0.37638932763276
 6 -7.92234742114211  4.57064378917892 -1.17686179567957
 6 -8.43999345264526  3.60137706760676 -2.03716266066607
 6 -7.83422231273127  2.37115312411241 -1.61410735723572
 6 -8.39054204510451  5.93686359575958 -1.16476598539854
 6 -9.53687805110511  3.77452785098510 -3.13339797259726
 6 -8.89016046974698  4.08539668586859 -4.58600500450045
 7 -6.35651407040704 -0.07457247494749 -1.14214930693069
 6 -7.26912644224422 -0.04114018261826 -2.08179238993899
 6 -7.52511001820182 -1.32461416501650 -2.83276579917992
 6 -6.79002855165517 -2.14976454825483 -2.03942010771077
 6 -5.96311472687269 -1.37751131623162 -1.00437656805681
 6 -8.46494195199520 -1.64299442544254 -3.94460135633563
 6 -6.17106077317732 -3.56739232313231 -2.00228378347835
 8 -6.39534392989299 -4.57362506090609 -2.71693795889589
 6 -5.04741330343034 -3.58347640024002 -0.87867018681868
 6 -5.34937241464146 -4.68128356945695  0.18023169496950
 8 -5.83011878347835 -4.42279128722872  1.23965032843284
 8 -4.95773547174718 -5.90921211761176 -0.25827897249725
 6 -5.31216878107811 -7.00811266456646  0.59078090789079
 6  2.36755772897290 -4.96929805000500  0.52361631603160
 6  3.37249178417842 -4.01051121202120  0.98473637343734
 6  4.00279967016702 -3.13311618171817  0.09218285328533
 6  3.74501884078408 -3.05541048234823 -1.26198570307031
 6  5.13521994779478 -2.35478052565257  0.67083088188819
 6  6.49109398069807 -2.85135806100610  0.18119958735874
 6  7.69964528812881 -1.95152450795080  0.64275996649665
 6  9.03670449174918 -2.03929876347635 -0.04454223672367
 6  9.64858123982398 -3.44846548694869 -0.00623408110811
 6  10.11062164126413 -1.03015325272527  0.45478799429943
 6  11.43714101650165 -0.95899550645064 -0.37274604080408
 6  12.29661735033503  0.19980460796080  0.11329817741774
 6  13.61436389218922  0.37976284618462 -0.70946570977098
 6  14.53117141614161 -0.78765816841684 -0.48478262916292
 6  14.24387032663266  1.70995716731673 -0.36387564236424
 6  15.46749093949395  2.14833286148615 -1.16980197519752
 6  16.02606519091909  3.48243299609961 -0.58255886908691
 6  17.27674292339234  3.97737557915792 -1.25841977717772
 6  17.27390998069807  4.17686257795780 -2.78674089828983
 6  17.93012241834183  5.18894415971597 -0.44323378227823
 1 -2.70041576437644  1.39375365076508  3.45039550795080
 1 -6.53190116891689  5.70029540994099  0.44242323402340
 1 -8.80988139533953  1.15982628552855 -3.00291577037704
 1 -3.72317338213821 -3.25131044644464  1.70476853765376
 1 -1.88621574547455 -1.21336899849985  2.60386166226623
 1 -3.40192997209721 -2.65910907210721  4.43551709570957
 1 -3.42826361906191 -0.84930483488349  4.57583961376138
 1 -4.66012852455246 -1.79929901080108  3.67030098059806
 1 -2.36004131783178 -3.19439895719572 -0.34150477427743
 1 -1.48733656605661 -1.77846696299630  0.32812093369337
 1 -0.47241267476748 -3.37240853645364  2.47905212391239
 1 -1.51657637923792 -4.62396952815282  1.70845264326433
 1 -1.84486460026003  3.58094761916192  3.87865377507751
 1 -2.98322931303130  4.85162236823682  4.60923718141814
 1 -3.03281627662766  3.30439143664366  5.08339334533453
 1 -5.36845990989099  6.72877707210721  2.30930625202520
 1 -10.03509264276428  3.00420107720772 -3.17817106880688
 1 -10.19589038693869  4.52770661476148 -2.78448873957396
 1 -9.73723352315232  4.14923333733373 -5.21398660096010
 1 -8.03697320672067  5.08462820822082 -4.58043799879988
 1 -8.16922677167717  3.29175853465347 -5.05528545334533
 1 -8.08779636923692 -1.00142068496850 -4.79943094139414
 1 -8.18615959895989 -2.57585099019902 -4.32547518451845
 1 -9.53750382988299 -1.50971779517952 -3.74784169086909
 1 -4.01072843024302 -3.83734856145615 -1.46728001490149
 1  2.61155228822882 -5.96665460846085  0.95576153305331
 1  2.24769551295130 -5.13338031413141 -0.54727817741774
 1  3.60470259255926 -4.06438572037204  2.04570957855786
 1  2.70709569626963 -3.32598821992199 -1.67040958195820
 1  3.85640025332533 -1.93906746604660 -1.69526199669967
 1  4.52690486448645 -3.49456318551855 -1.79502842874287
 1  5.05700574147415 -1.23564998899890  0.39274115761576
 1  5.12688121542154 -2.39445107750775  1.79604448474847
 1  6.48788631533153 -4.03195638773877  0.22012989698970
 1  6.48375853625363 -2.50554816381638 -0.96305690119012
 1  7.15998492979298 -0.93393671877188  0.73462070757076
 1  7.87487959085909 -1.99327591069107  1.76955134043404
 1  8.71731584088409 -1.92338061326133 -1.21852519061906
 1  8.98388290699070 -4.07230600200020 -0.18803259565957
 1  10.54906424722472 -3.59377357945795 -0.66657677117712
 1  9.82524158555856 -3.76786787828783  1.04972541524152
 1  9.65093424402440  0.09393511971197  0.43772913671367
 1  10.25145524302430 -1.18999553345335  1.34150369036904
 1  11.83853899519952 -1.94991502340234 -0.24257863106311
 1  11.33611969866987 -0.73870677557756 -1.48043937753775
 1  11.51097213071307  0.99807423662366  0.20614105890589
 1  12.37344216751675  0.10458164956496  1.39511779197920
 1  13.56076287698770  0.48873330563056 -1.73754599329933
 1  14.67900723902390 -1.06436464916492  0.68823450345035
 1  14.30749632063206 -1.76016503280328 -0.98779510101010
 1  15.63998498689869 -0.70830402860286 -0.91083797629763
 1  13.50429862406241  2.45771039013901 -0.20267205490549
 1  14.60150685098510  1.65415570477048  0.76900411431143
 1  16.30978263406341  1.43355196789679 -1.44742123282328
 1  15.08252383578358  2.48061197399740 -2.31822320202020
 1  15.19472087668767  4.06156153415342 -0.61385338343834
 1  16.14657742784279  3.39754639603960  0.57436733713371
 1  18.17094077547755  3.20906239743974 -1.10002908250825
 1  16.68997971837183  5.25214174307431 -2.95729808960896
 1  18.34188011151115  4.25772528582858 -3.09025363046305
 1  16.76263646384638  3.23676474647465 -3.11189922452245
 1  17.97864391159116  5.01716293379338  0.65131679587959
 1  19.08206572887289  5.44086823902390 -0.68896581098110
 1  17.44410596149615  6.26843634673467 -0.74200826212621
 1 -4.58616391779178 -7.67780721382138 -0.04853839153915
 1 -6.44340877117712 -7.03120020662066  0.90117362486249
 1 -4.92306047464746 -6.86361793739374  1.60871532813281
 8 -7.96013360496050  6.88178467926793 -0.45406319031903
 1 -9.06577487458746  6.05739138403840 -2.07370305310531

