%nproc=4
%Mem=4GB
# td=(NStates=1) iop(3/107=0140000000,3/108=0140000000) iop(3/107=0140000000,3/108=0140000000) CAM-B3LYP/6-31G(d,p) 

TD

0 1
12 -5.60996250285028  1.21465633993399  0.18374697989799
 6 -4.98927931513151 -2.10926939023902 -0.37014388118812
 6 -3.24349313841384  1.19852013681368  2.64722009530953
 6 -6.15844464016402  4.56679994419442  0.67238744754475
 6 -8.00042580968097  1.15063591429143 -2.31271894539454
 7 -4.29460371367137 -0.28405659745975  1.00210154895490
 6 -4.19036256375638 -1.60177387898790  0.60783313291329
 6 -3.17840096459646 -2.35132843564356  1.42595695939594
 6 -2.88441161216122 -1.28933182408241  2.59337589368937
 6 -3.53526095349535 -0.06243887158716  2.09834441964196
 6 -3.48675171457146 -1.69269271067107  3.90928362776278
 6 -2.05922111531153 -2.77569497879788  0.58689399489949
 6 -0.88016966046605 -3.50683826442644  1.35150873887389
 6  0.26910201070107 -3.89813365406541  0.47586578127813
 8  0.42725278957896 -3.58925623922392 -0.67359359355936
 8  0.98725557125713 -4.75805542284228  1.18981358865887
 7 -4.85860667696770  2.53848322522252  1.48407863956396
 6 -3.90341243104310  2.42223964566457  2.41222182548255
 6 -3.62164166786679  3.76804530673067  3.09197975417542
 6 -4.44510506320632  4.63289481778178  2.46134540584058
 6 -5.24277038123812  3.92881097629763  1.45146123842384
 6 -2.66286164926493  3.93423079887989  4.22628681808181
 6 -4.45250178077808  6.02570999149915  2.72388189298930
 8 -3.92788283628363  6.55700358835884  3.63846774667467
 7 -6.86096989688969  2.68640853665367 -0.67042869916992
 6 -7.00419313411341  3.95078469566957 -0.34034572327233
 6 -8.08329351575157  4.60329705450545 -1.08163227272727
 6 -8.50913036633663  3.63406033593359 -2.00774971937194
 6 -7.88344723522352  2.44082009080908 -1.68043398989899
 6 -8.59175216611661  5.96570648004800 -0.96645615441544
 6 -9.45887025032503  3.81020141834183 -3.21678631143114
 6 -8.74741619531953  4.15422356855685 -4.48329473347335
 7 -6.36467488648865 -0.09520453815382 -1.07063215521552
 6 -7.38594812441244 -0.07195326392639 -2.02719693039304
 6 -7.57603511071107 -1.29469117271727 -2.77971049364937
 6 -6.74140368916892 -2.11367093889389 -2.00141630733073
 6 -5.96212462786279 -1.40684424952495 -1.12003813421342
 6 -8.62813827162716 -1.66785691169117 -3.81587848404840
 6 -6.33522718981898 -3.59686527042704 -2.01048460356036
 8 -6.60144453995400 -4.63290098849885 -2.62004826992699
 6 -5.00687925002500 -3.52337038963896 -0.93766608640864
 6 -5.24720219761976 -4.52790823192319  0.19815348714871
 8 -5.65215098669867 -4.36099510761076  1.32997936133613
 8 -5.03849354755476 -5.82298349474947 -0.28691183578358
 6 -5.25558312251225 -6.92226407970797  0.65425725552555
 6  2.36153712691269 -5.02535365556556  0.63183713811381
 6  3.33911844684468 -4.11664182508251  1.02397029682968
 6  4.04720411061106 -3.28904177427743  0.24689832483248
 6  3.82409674857486 -3.21466640794079 -1.30412991749175
 6  5.07888431423142 -2.42203725132513  0.75859965876588
 6  6.47052192349235 -2.79863278847885  0.15588705610561
 6  7.61634695829583 -1.77872722822282  0.58548423892389
 6  9.09654047534753 -2.08780361396140  0.03743596109611
 6  9.48911529322932 -3.47507814821482  0.27861440374037
 6  10.06921750085009 -0.92699293669367  0.45008752425243
 6  11.37825512791279 -0.92734234113411 -0.41876064226423
 6  12.25826351495149  0.20285491299130  0.11640848844884
 6  13.57771022682268  0.41685655555556 -0.73119788298830
 6  14.43605190419042 -0.87087649024902 -0.55124927582758
 6  14.22499843944394  1.71208738033803 -0.23858311311131
 6  15.43834802520252  2.18953698189819 -0.88450344534453
 6  15.88617120152015  3.54314906770677 -0.53609422262226
 6  17.26047129622962  3.98135597719772 -1.13684761996200
 6  17.18850143984398  4.18979387108711 -2.74521674587459
 6  17.76665607170717  5.38411367666767 -0.55633509240924
 1 -2.66945266806681  1.21513578897890  3.48495896429643
 1 -6.49633761256126  5.55928130853085  0.93215220692069
 1 -8.63537394459446  1.20321062396240 -3.10139561836184
 1 -3.56459752455246 -3.13450876627663  1.92108016881688
 1 -1.70548767266727 -1.07062472407241  2.56985826192619
 1 -2.91014079317932 -2.43334649584959  4.39988353235324
 1 -3.34442523522352 -0.83828373277328  4.53291532133213
 1 -4.49813232493249 -2.03822290319032  3.77546149664966
 1 -2.38150346404640 -3.31858137543754 -0.24675529932993
 1 -1.76286411881188 -1.90351946824683  0.01587970957096
 1 -0.63611904540454 -3.14226552215222  2.36520073877388
 1 -1.41716643824382 -4.33332046324633  1.63676547454745
 1 -1.74001411521152  3.38328785318532  4.00706661636164
 1 -2.21515250535053  5.04233143914391  4.67480373807381
 1 -3.01979497449745  3.65547654515452  5.18864387038704
 1 -5.21275433933393  6.65175937033703  2.00413573497350
 1 -10.03615274877488  2.93344400150015 -3.46465971767177
 1 -10.17810860876088  4.53754759885989 -3.10625091579158
 1 -9.64041384118412  4.01325973997400 -5.30479568186819
 1 -8.32269177857786  5.31357110251025 -4.56884683968397
 1 -7.79932978197820  3.46532589138914 -4.66114603940394
 1 -8.71261885148515 -0.62159270217022 -4.64283528182818
 1 -8.25730671367137 -2.67274067916792 -4.43048568556856
 1 -9.75381546104611 -1.88094491789179 -3.55169207590759
 1 -4.17491484888489 -3.95740056665667 -1.52127541444144
 1  2.25413654665467 -6.14616255925593  0.86362231913191
 1  2.04724546794679 -4.86745372147215 -0.47698114771477
 1  3.85390751305131 -4.43218250005001  2.14395940354035
 1  2.74826981368137 -3.34551017211721 -1.58690123112311
 1  3.88422303560356 -2.08470202950295 -1.45975844634463
 1  4.27522969696970 -3.87233096229623 -1.98966789268927
 1  4.91539158005801 -1.52060848484849  0.55357724122412
 1  5.28465699299930 -2.34832646504650  1.96531141144114
 1  6.80572809950995 -3.79638283038304  0.48095597959796
 1  6.35329548994899 -2.71877948694870 -0.94919551505151
 1  7.31717064836484 -0.72049537463746  0.42599984548455
 1  7.83905600850085 -1.99303588668867  1.61675606090609
 1  8.98560266956696 -1.83410168536854 -1.07911124922492
 1  8.90145466416642 -4.18503727512751 -0.29987377977798
 1  10.54570391119112 -3.73997819991999  0.02011189768977
 1  9.48229729112911 -3.65074616611661  1.39070951365137
 1  9.55050420102010  0.02194792099210  0.42062742654265
 1  10.55938603610361 -1.12366890079008  1.45759529952995
 1  11.73204834613461 -1.97081711361136 -0.34264863806381
 1  10.96698278497850 -0.60950385528553 -1.64542587618762
 1  11.74910594409441  1.19155358455846 -0.03118267346735
 1  12.48289311261126  0.15354654605461  1.20983926412641
 1  13.37587438813881  0.54329876217622 -1.76337857655766
 1  14.59100843914391 -1.09961817451745  0.47757343734373
 1  14.03120869186919 -1.66857587388739 -1.09983630513051
 1  15.50558154655466 -0.68896209440944 -0.89648654115412
 1  13.54424261846185  2.49073369246925 -0.49749153685369
 1  14.37681438173817  1.58590888008801  0.89217643154315
 1  15.91593324912491  1.25100371307131 -0.60071656235624
 1  15.27714329772977  1.95198911171117 -2.02954433413341
 1  15.14691609620962  4.13631900990099 -1.05961795989599
 1  16.04117688778878  3.66750339173917  0.52413231363136
 1  18.01151483288329  3.33690518171817 -0.95666474607461
 1  16.69217993839384  5.12716924582458 -3.04683704350435
 1  18.31777770127013  4.34264377767777 -3.23467807290729
 1  16.77705790599060  3.26194726472647 -3.10142817741774
 1  17.88209425662566  5.29057027452745  0.51942360656066
 1  18.67081460376038  5.61432558475848 -1.10206712111211
 1  17.04679623052305  6.10944044714472 -0.93617767906791
 1 -4.84953025442544 -7.76691612471247  0.19340580288029
 1 -6.50589501980198 -6.89254634123412  0.79352285978598
 1 -4.88057622622262 -6.69835141074107  1.56157061366137
 8 -7.91604919651965  6.75098159895990 -0.25361314531453
 1 -9.29435773287329  6.16688233313331 -1.73894957775778

