%nproc=4
%Mem=4GB
# td=(NStates=1) iop(3/107=0140000000,3/108=0140000000) iop(3/107=0140000000,3/108=0140000000) CAM-B3LYP/6-31G(d,p) 

TD

0 1
12 -5.58377988458846  1.27668254255426  0.10896950215022
 6 -5.08733912111211 -2.14213267656766 -0.34068093489349
 6 -3.37700648974897  1.12031231603160  2.80003537683768
 6 -6.06932572827283  4.59150241444144  0.53188339713971
 6 -8.07629339643964  1.16272712341234 -2.34281195469547
 7 -4.33988824212421 -0.33948214001400  0.97416875567557
 6 -4.33910743824382 -1.69675337693769  0.66606895649565
 6 -3.20947407190719 -2.39340264306431  1.44461882558256
 6 -2.94771794279428 -1.37915080598060  2.59082563866387
 6 -3.61249867726773 -0.07998062576258  2.05327991319132
 6 -3.67745078447845 -1.84754819621962  3.95233793319332
 6 -1.97551274447445 -2.60573798309831  0.53445875137514
 6 -0.95584722822282 -3.53136071667167  1.35639922792279
 6  0.24095919641964 -3.93982782348235  0.51144933963396
 8  0.56301636593659 -3.41663897749775 -0.60140637483748
 8  1.02537938363836 -4.78657827512751  1.22801740904090
 7 -4.94520533683368  2.61719109600960  1.55303553525353
 6 -3.99385147494749  2.35119254095410  2.54022462576258
 6 -3.63490299399940  3.65139364156416  3.16709726592659
 6 -4.44247480018002  4.62854438273827  2.51120039133913
 6 -5.23327943214321  3.89990808600860  1.43219931223122
 6 -2.63138850195020  3.81801917771777  4.29283347274728
 6 -4.51067759835984  6.00845826632663  2.89655916071607
 8 -4.02563261126113  6.49105699369937  3.91638553845385
 7 -6.88297209710971  2.58476837263726 -0.72030368666867
 6 -6.92006472127213  3.92076169336934 -0.47157884658466
 6 -7.86420160656066  4.57256398119812 -1.24333844334433
 6 -8.43867332063206  3.65640257015702 -2.14467341174117
 6 -7.70722961346135  2.45499150795079 -1.82373832033203
 6 -8.32894588548855  6.01412132153215 -1.12119162796280
 6 -9.43955831913191  3.80035043324332 -3.18818345114511
 6 -8.75831728542854  4.20341848804880 -4.58533493749375
 7 -6.40213863286329 -0.14136915461546 -1.06641173317332
 6 -7.39772930253025 -0.01247731633163 -1.98971318201820
 6 -7.67629513671367 -1.31096279987999 -2.57723024562456
 6 -6.78873842264226 -2.17096666846685 -1.96909307500750
 6 -6.00821923732373 -1.46783034813481 -1.03409954035404
 6 -8.60271572937294 -1.58318844484448 -3.84698159435944
 6 -6.25808947604760 -3.55914149804980 -1.90852440754075
 8 -6.75394979047905 -4.53828152655266 -2.42653891899190
 6 -5.09486804890489 -3.60726877947795 -0.75195751555155
 6 -5.41520899829983 -4.65597103820382  0.15498917071707
 8 -6.05492126372637 -4.51183019111911  1.17946430983098
 8 -5.03625332353235 -5.87338853525352 -0.30048319291929
 6 -5.42854041824183 -7.00308216151615  0.55683751355136
 6  2.38775974917492 -5.09454057425743  0.55512946734673
 6  3.28574310931093 -4.07065722662266  1.00117801760176
 6  4.09521891209121 -3.22367523762376  0.26644027902790
 6  3.91715605450545 -3.06631157245725 -1.25024452895290
 6  5.25092151795180 -2.38168321592159  0.83652745154515
 6  6.54583945524552 -2.69798272347235  0.08897036443644
 6  7.61713703730373 -1.75472482798280  0.52688837933793
 6  8.98012883418342 -1.91612644624462 -0.03954173667367
 6  9.62360874257426 -3.33504414481448  0.17783432573257
 6  9.99417999709971 -0.86643688108811  0.39870238573857
 6  11.35098240064006 -0.91304091099110 -0.30289905610561
 6  12.25286297489749  0.25930055755576  0.11843869146915
 6  13.57297975377538  0.49628449834983 -0.62209697289729
 6  14.47518581758176 -0.60544994759476 -0.53772792369237
 6  14.34011995159516  1.71649782138214 -0.11019027382738
 6  15.48816300670067  2.18616664486449 -0.98001299629963
 6  16.07657024142414  3.55076982978298 -0.53841445464546
 6  17.47482273137314  3.88914675627563 -1.38625256045605
 6  17.13783637333733  4.18944383608361 -2.83252547674767
 6  17.97125653175317  5.23335860116012 -0.70224968386839
 1 -2.88464418721872  1.00501477687769  3.62659312771277
 1 -6.32040001880188  5.59289466986699  0.78562755445545
 1 -8.62159256645664  1.07072737563756 -3.35889136793679
 1 -3.62571363616362 -3.31434675007501  1.88689675047505
 1 -1.74718184208421 -0.98862652425243  2.73191446754676
 1 -3.35005478457846 -2.93328648984898  3.97295083908391
 1 -3.44712550525052 -1.10967087148715  4.78623065286529
 1 -4.69383189488949 -2.07963704460446  3.90083403390339
 1 -2.15573088678868 -3.28301781908191 -0.18887951175118
 1 -1.36479431183118 -1.79866898319832  0.19170729232923
 1 -0.63615904940494 -3.10370166576658  2.19310352905291
 1 -1.26072079367937 -4.44947207840784  1.67484928292829
 1 -1.66656677047705  3.15468499289929  3.90977688738874
 1 -2.21178216831683  4.98939614561456  4.46459271697170
 1 -2.78253124812481  3.24131512901290  5.36977198319832
 1 -4.98503156705671  6.54281847624763  2.08567388878888
 1 -10.09956909040904  2.86213687078708 -3.38808205990599
 1 -10.08283908180818  4.67951179527953 -2.91545183588359
 1 -9.50080988078808  4.35062347634764 -5.42669787208721
 1 -8.02799230863086  5.13917366276628 -4.36472642764276
 1 -7.98734858385838  3.42049140794079 -4.85421534633463
 1 -8.42820040964097 -1.06810735363536 -4.85318631693169
 1 -8.75022600560056 -2.65032843794379 -3.82324496149615
 1 -9.63525360486049 -1.41343816721672 -3.68406531323132
 1 -4.25568292569257 -3.86375120172017 -1.35197848474847
 1  2.60894202720272 -6.23008095109511  0.91071702860286
 1  2.28713945734573 -5.21414839093909 -0.46279972957296
 1  3.58619074137414 -4.14475375717572  2.06552155975598
 1  2.86140112681268 -3.34173979507951 -1.44467700870087
 1  4.15573018631863 -2.07466102540254 -1.55855832633263
 1  4.48593076707671 -3.86357008620862 -1.85734466036604
 1  4.89343938483848 -1.35925234923492  0.77078896239624
 1  5.09373790109011 -2.58988062046205  2.08377325762576
 1  6.89832735943594 -3.74232742484248  0.22873075707571
 1  6.29106926732673 -2.73855146414642 -0.86611720722072
 1  7.26844577587759 -0.83247657275728  0.37720496599660
 1  7.59135123802380 -1.80961754485449  1.76702108740874
 1  8.96696080538054 -1.95921419661966 -1.21420475857586
 1  8.88344286298630 -4.17471624302430 -0.16555034743474
 1  10.88357769856986 -3.36831103320332  0.19936982348235
 1  9.52189125052505 -3.71525261676168  1.28855929862986
 1  9.57984713531353  0.26566229242924  0.35662102590259
 1  10.26781687918792 -1.14286081998200  1.54666420642064
 1  11.78385352665267 -1.88058809070907 -0.04261863506351
 1  11.22635872257226 -0.97028993389339 -1.43503483708371
 1  11.76472750625063  1.18655308450845  0.14785523032303
 1  12.40480530383038  0.07855904730473  1.29347762796280
 1  13.32759956065606  0.69068350065007 -1.64997723642364
 1  14.70958029632963 -0.95756396909691  0.48224390439044
 1  14.00775634663466 -1.54403341964196 -1.02105842734273
 1  15.40904189258926 -0.51865506370637 -1.07900479297930
 1  13.71034922912291  2.68759337843784 -0.05566735443544
 1  14.66044274457446  1.59624991419142  1.00452766666667
 1  16.37043869966997  1.59222783548355 -0.95591208190819
 1  15.21263684708471  2.36791070387039 -1.92120350005000
 1  15.35431683628363  4.51738711671167 -0.67579957805781
 1  16.35046781688169  3.55899254065407  0.41004090449045
 1  18.19882356375637  3.13834532573257 -1.35636471607161
 1  16.49669038943894  5.16958348724873 -2.77837019681968
 1  18.14888081158116  4.37184669796980 -3.43861846694669
 1  16.89930013021302  3.19186025602560 -3.65356339093909
 1  18.10736678387839  4.84960617811781  0.27665933013301
 1  18.82260978327833  5.64885903810381 -1.04049096349635
 1  17.22976452735274  6.00619012211221 -0.79822388368837
 1 -4.75761106250625 -7.83899333243324  0.13489995229523
 1 -6.46429085938594 -7.05572265886589  0.53508701620162
 1 -5.10811898049805 -6.79484105970597  1.71479593619362
 8 -7.76619421102110  6.86043254405441 -0.49043682768277
 1 -9.37482577967797  6.19446509140914 -1.72060774357436

