%nproc=4
%Mem=4GB
# td=(NStates=1) iop(3/107=0140000000,3/108=0140000000) iop(3/107=0140000000,3/108=0140000000) CAM-B3LYP/6-31G(d,p) 

TD

0 1
12 -5.62567407400740  1.18620349464947  0.23257186238624
 6 -4.99337972517252 -2.15896435973597 -0.32911977877788
 6 -3.34664345344534  1.23617390219022  2.70094546784678
 6 -6.23016181188119  4.60775403960396  0.63579378817882
 6 -7.98903467056706  1.14232508320832 -2.42334000750075
 7 -4.29593384668467 -0.36633482528253  0.99133047184718
 6 -4.21428495599560 -1.57117081868187  0.70934328392839
 6 -3.22122524702470 -2.19361266406641  1.50528489218922
 6 -2.89675284628463 -1.28564145504550  2.63319987608761
 6 -3.56829425682568 -0.07979060676068  2.11424600980098
 6 -3.42526556595660 -1.79235267666767  4.00948364776478
 6 -1.92958815201520 -2.68207561686169  0.66178148364836
 6 -0.83869551305130 -3.50474805540554  1.31555514351435
 6  0.31867696819682 -3.84225806650665  0.48842703740374
 8  0.60128019231923 -3.35666297989799 -0.63552978717872
 8  1.08432527822782 -4.73752336963696  1.10049465676568
 7 -4.99424024032403  2.74489386628663  1.51354158585859
 6 -4.02070416021602  2.45332275397540  2.39399000230023
 6 -3.79096860056006  3.68431693389339  3.12626318251825
 6 -4.57749830253025  4.70588211651165  2.56309558085809
 6 -5.41885798999900  4.03553164836484  1.59027511981198
 6 -2.65136049914992  3.77515489128913  4.24190838023802
 6 -4.68833536413641  6.06422384288429  2.94649415421542
 8 -4.15722577057706  6.62209009700970  3.84239813971397
 7 -6.99903370327033  2.65248514431443 -0.64659631593159
 6 -7.08617133193319  3.94730434763476 -0.30959264796480
 6 -8.06848203460346  4.54352107690769 -1.16814092359236
 6 -8.58479793309331  3.60040697059706 -2.07495644004400
 6 -7.85994488498850  2.43211922072207 -1.70947689418942
 6 -8.56355934683468  5.99764967436744 -1.20414992379238
 6 -9.54303866716672  3.77247764596460 -3.17969260206021
 6 -9.03989544324432  4.17991613781378 -4.56872327632763
 7 -6.34654307330733 -0.13002802050205 -1.10045513751375
 6 -7.30819034863486  0.01282521392139 -2.11284549524953
 6 -7.58359586678668 -1.30029173277328 -2.74304682728273
 6 -6.68633818261826 -2.20269984178418 -2.03740990669067
 6 -5.97983639903990 -1.36497006210621 -1.08472460286029
 6 -8.57233269106911 -1.69973009900990 -3.74127102330233
 6 -6.26609027612761 -3.61508709260926 -1.92457601270127
 8 -6.63684808030803 -4.50377807620762 -2.51698796389639
 6 -5.09434799689969 -3.60268832143214 -0.84589690949095
 6 -5.28933641104110 -4.72626806790679  0.16270994279428
 8 -5.62720849244924 -4.47936694479448  1.26498286168617
 8 -4.96663636183618 -5.87230842724272 -0.36061920652065
 6 -5.37393495769577 -7.10676252955296  0.38280010981098
 6  2.38155912911291 -5.09508062826283  0.48498245264526
 6  3.46040057505751 -4.08747890879088  0.87298519831983
 6  4.06880627082708 -3.16382925302530  0.12096573157316
 6  3.76551088998900 -2.83068801010101 -1.23606311081108
 6  5.18962538833883 -2.42580762836284  0.83149694849485
 6  6.61339621092109 -2.75728865406541  0.10525199259926
 6  7.60473579717972 -1.81710106560656  0.66450214071407
 6  9.04710553185319 -2.00432526612661 -0.01843962646265
 6  9.67933431513151 -3.34893553395340  0.21634817711771
 6  9.94420499959996 -0.75285552295230  0.43963647914792
 6  11.40648795119512 -0.80946055295530 -0.25597436363636
 6  12.25235292389239  0.32844747224722  0.11768861646165
 6  13.58224067986799  0.39437430733073 -0.59491425462546
 6  14.48080637963796 -0.75264466706671 -0.36284043494349
 6  14.33435937553755  1.72531870347035 -0.18858811361136
 6  15.54057824822482  2.14139216741674 -1.05135013001300
 6  16.13599618401840  3.43371812461246 -0.63916452965297
 6  17.57177242634263  3.70202804440444 -1.33938787398740
 6  17.31120371007101  3.87994288598860 -2.82343456765677
 6  18.14071347744774  5.00631589688969 -0.66523598249825
 1 -2.78011373417342  1.28054232963296  3.72428289668967
 1 -6.57303528232823  5.74790017041704  0.70642963466347
 1 -8.61908231543154  1.10172047494749 -3.26679215801580
 1 -3.43092415721572 -3.15535085048505  1.96947500830083
 1 -1.74761188508851 -1.14013167476748  2.59053032913291
 1 -2.66765654475447 -2.74666782798280  4.43359690369037
 1 -3.49326011871187 -0.97036694109411  4.90825285508551
 1 -4.35138765046505 -2.39522860376038  3.94442839333933
 1 -2.23190850455046 -3.17065658295830 -0.07926855065507
 1 -1.55287311971197 -1.59074819111911  0.35505362696270
 1 -0.42419785328533 -2.91255255085509  2.20941516021602
 1 -1.22418714031403 -4.36705383658366  1.66726852485248
 1 -1.68002811661166  3.93818334273427  3.73987989768977
 1 -3.00803179327933  4.81695890189019  4.75721197889789
 1 -2.78928192319232  2.97128812631263  5.19717472347235
 1 -5.48571163506351  6.64694888928893  2.32773809520952
 1 -9.99299843334333  2.75811646874687 -3.04501775347535
 1 -10.24950574847485  4.55781962606261 -3.02990328102810
 1 -9.86578637843784  4.02758117211721 -5.39415461776178
 1 -8.62486199559956  5.19870961636164 -4.56953690869087
 1 -8.06459630863086  3.73948330713071 -4.96898682348235
 1 -8.35919350895090 -1.25892643554355 -4.63470446874687
 1 -8.57972895589559 -2.82994639973997 -3.92956559355936
 1 -9.70812089158916 -1.23520034343434 -3.20331723842384
 1 -4.18535589298930 -3.86321114771477 -1.54063735063506
 1  2.62454358735874 -6.10429837283728  0.74968092499250
 1  2.16233697709771 -5.07194417051705 -0.42161561116112
 1  3.59568169046905 -4.14855413721372  1.90461546914691
 1  2.64000898759876 -3.14983060416042 -1.55537807880788
 1  3.94172878617862 -1.71180473977398 -1.29406187668767
 1  4.40413258725873 -3.40998472767277 -1.84663358925893
 1  4.84602464336434 -1.33064948894889  0.54578646214621
 1  5.16250477777778 -2.78152978537854  1.82359724002400
 1  6.85372289898990 -3.85240843294329  0.34287217121712
 1  6.50890105050505 -2.44308191719172 -0.91580217571757
 1  7.41092002330233 -0.82402572767277  0.43470071557156
 1  7.62100420332033 -1.79603618671867  1.80007439273927
 1  8.60472458175818 -1.91512978817882 -1.12354569266927
 1  8.96608112681268 -4.18884765616562  0.03493970157016
 1  10.68522786358636 -3.65571977407741  0.05851573807381
 1  9.50933999539954 -3.47309840134013  1.35982642534253
 1  9.59002815341534  0.35530125632563  0.34099946374637
 1  10.25015511301130 -0.77949448334833  1.52763230323032
 1  11.83589873117312 -1.75936596849685  0.04930055685569
 1  11.24928101480148 -0.82605551045105 -1.20998233183318
 1  11.71353238673867  1.39827425662566  0.00445088988899
 1  12.22029685298530  0.16564775617562  1.10540882108211
 1  13.29311611231123  0.48890332263226 -1.78602084078408
 1  14.99332867116712 -0.89320753345335  0.50566624662466
 1  14.08365393639364 -1.69131814811481 -0.82081840334033
 1  15.24481546994699 -0.75792899109911 -0.99579647214722
 1  13.62145033923392  2.61923654275427 -0.22647443514351
 1  14.43437013731373  1.66930721992199  0.97331454535454
 1  16.15592724852485  1.24898351105110 -1.03851034173417
 1  15.26621220462046  2.11316522932293 -2.12524390409041
 1  15.52290369496950  4.32340771877188 -0.93920591869187
 1  16.08818158825883  3.38477511891189  0.58110801120112
 1  18.23007668906891  2.92387387858786 -1.13319239883988
 1  16.46929765016501  4.53658018691869 -3.01709406920692
 1  18.26437236073608  4.07645715901590 -3.43408801390139
 1  17.00123032323232  2.80972204220422 -3.29099713431343
 1  18.36596264346435  4.63083430093009  0.34828649284928
 1  19.22294981728173  5.32884703690369 -1.01031794619462
 1  17.17732928382838  5.57236673977398 -0.74102816411641
 1 -5.40100540194019 -8.03514294739474 -0.43270680838084
 1 -6.36437086738674 -6.86381346794680  0.84099760726073
 1 -4.57945611421142 -7.17338891449145  1.27350180678068
 8 -8.13332092369237  6.78356485728573 -0.42497028102810
 1 -9.27994629172917  6.23480912581258 -2.12532821562156

