%nproc=4
%Mem=4GB
# td=(NStates=1) iop(3/107=0140000000,3/108=0140000000) iop(3/107=0140000000,3/108=0140000000) CAM-B3LYP/6-31G(d,p) 

TD

0 1
12 -5.71140264686469  1.20378525282528  0.24267287248725
 6 -4.99299968716872 -2.13287175047505 -0.38694556135614
 6 -3.39987877697770  1.12513279807981  2.80461583488349
 6 -6.24899369506951  4.53336660086009  0.59134934373437
 6 -8.18821458855886  1.11565241594159 -2.28259593309331
 7 -4.37475172847285 -0.28617680948095  0.98326966576658
 6 -4.25129865736574 -1.63919762136214  0.69787213681368
 6 -3.20209333383338 -2.28938224102410  1.42529689338934
 6 -2.98350152115211 -1.34035692659266  2.65623217931793
 6 -3.70211763916392 -0.11625425312531  2.16044062926293
 6 -3.52396543594359 -1.80694413581358  3.99243194259426
 6 -1.90603579677968 -2.53618102740274  0.57162246774677
 6 -0.98077972147215 -3.55886346694669  1.26744033203320
 6  0.34771987248725 -3.82540638133813  0.52227042174217
 8  0.53689375367537 -3.48071538513851 -0.61144737893789
 8  1.24630147584758 -4.64763438073807  1.28369297659766
 7 -5.02622343864387  2.55491486838684  1.52741297299730
 6 -4.07801989178918  2.34103152485249  2.39292989628963
 6 -3.75621512521252  3.60026852905291  3.10355091129113
 6 -4.60584113681368  4.60239176747675  2.53197246854685
 6 -5.29801590579058  3.93245134033403  1.46400249254925
 6 -2.79546490959096  3.77058443424342  4.17256144554455
 6 -4.64657118771877  6.08763618411841  2.83191269606961
 8 -3.97883793179318  6.52609049704970  3.71368526842684
 7 -7.03650745064506  2.53033292909291 -0.60470212651265
 6 -6.97332004680468  3.91744136133613 -0.39052074077408
 6 -7.96844203060306  4.60502722752275 -1.13174728422842
 6 -8.61186063936394  3.61457838773877 -2.00861980638064
 6 -7.94231312181218  2.32756876567657 -1.64077002350235
 6 -8.37198018891889  5.94537444684468 -1.15778528732873
 6 -9.64840920422042  3.78864926312631 -3.07577221002100
 6 -9.02611406510651  4.15589373557356 -4.40519692369237
 7 -6.40007842684268 -0.17690270797080 -1.17596268826883
 6 -7.44858438803880 -0.07839390799080 -2.01155536623662
 6 -7.59166667386739 -1.32216391999200 -2.71242376497650
 6 -6.70055960476048 -2.20958052985298 -2.09218538423842
 6 -5.91033944934493 -1.40251381648165 -1.18633476387639
 6 -8.43607906570657 -1.66065619161916 -3.71875877207721
 6 -6.21048471557156 -3.53822940684068 -2.07426098119812
 8 -6.56279067456746 -4.52954065246525 -2.69840610571057
 6 -5.05657421952195 -3.53173122572257 -0.92056437623762
 6 -5.36076355375538 -4.59785522662266  0.10903457525753
 8 -5.85692146374637 -4.39477848594859  1.26106246964696
 8 -5.00054975317532 -5.84037523392339 -0.24187733233323
 6 -5.64139170337034 -6.88602045534553  0.48442027182718
 6  2.36132710591059 -4.97252837303730  0.63326728112811
 6  3.39557409240924 -3.98392855375538  1.05530343014301
 6  4.03055244544454 -3.21980485058506  0.15839947494749
 6  3.77660199909991 -3.06616155745575 -1.29452895739574
 6  5.16895332113211 -2.26468151575158  0.68658245704570
 6  6.59254412571257 -2.54494741994199  0.09363083048305
 6  7.66382170577058 -1.63250260576058  0.64797048754875
 6  9.09700052135214 -1.91311614521452 -0.03877165966597
 6  9.58032441414142 -3.42421306170617  0.24208075037504
 6  10.01679225832583 -0.81694193159316  0.42384489999000
 6  11.31613891629163 -0.80720032693269 -0.41008977517752
 6  12.31838952755276  0.25677030453045  0.21709855745575
 6  13.71113356915692  0.43928879877988 -0.58948371157116
 6  14.59076737573757 -0.76851625422542 -0.37428157905791
 6  14.35003094269427  1.74182035363536 -0.06422567736774
 6  15.63965815621562  2.02438046624662 -0.97531252625263
 6  16.35937852225222  3.46306105890589 -0.62566317951795
 6  17.57270251935194  3.81916975857586 -1.39959389458946
 6  17.53654624432443  4.02028692039204 -2.87687991219122
 6  18.22576198229823  5.02580784608461 -0.77397685658566
 1 -2.81190691349135  1.05055933133313  3.72401286968697
 1 -6.67321530033003  5.56649202960296  0.83744273597360
 1 -8.87817822502250  1.21053135603560 -3.13726920572057
 1 -3.58144920972097 -3.35352066746675  1.65458351915191
 1 -1.90158728262826 -1.05454311591159  2.60655193129313
 1 -2.94803458255826 -2.65341850305030  4.25697924192419
 1 -3.51312210491049 -1.16905681008101  4.76372840264026
 1 -4.56561907360736 -2.14769385028503  3.78656260676068
 1 -2.23028834253425 -2.87000651795180 -0.33549417321732
 1 -1.46975480788079 -1.47780689698970  0.41137925952595
 1 -0.60972640614061 -3.12584387998800  2.25713993269327
 1 -1.56587130873087 -4.50585771697170  1.41620341834183
 1 -1.82657277107711  3.35057458185819  3.79745565526553
 1 -2.78907989808981  4.69577678367837  4.60191644934494
 1 -2.94952794779478  3.06994799229923  4.88590359635964
 1 -5.27899096299630  6.84400859525953  2.27975329672967
 1 -10.30129926342634  2.88422908000800 -3.08652190389039
 1 -10.36229702760276  4.39554339843984 -2.87331762246225
 1 -9.87545734553455  4.45106352035203 -5.15201040334033
 1 -8.24378388778878  4.96212595799580 -4.28883883888389
 1 -8.34971482048205  3.27063642244224 -4.96720664546455
 1 -7.98643623322332 -1.41335187808781 -4.68155915421542
 1 -8.63485446844684 -2.82709611471147 -3.68589122612261
 1 -9.57032711221122 -0.97439426282628 -3.66891379807981
 1 -4.21839919731973 -4.01718654525453 -1.48395168206821
 1  2.54102523552355 -6.01053899689969  1.07277323422342
 1  2.15556630003000 -5.18908588468847 -0.39649309890989
 1  3.75896801910191 -3.97329661146115  2.19234424202420
 1  2.63726871357136 -3.41441706280628 -1.42187472847285
 1  4.03091770507051 -2.08086164546455 -1.37706017651765
 1  4.48646082008201 -3.63532726192619 -1.98364729062906
 1  5.09979001990199 -1.04760118411841  0.42521440494049
 1  5.12361088838884 -2.29923155555556  1.83201808210821
 1  6.82638016471647 -3.62785597769777  0.31494937893789
 1  6.48510867126713 -2.65971358035804 -1.01052164766477
 1  7.55765469676968 -0.56876020112011  0.75986323182318
 1  7.74245634853485 -2.04997158025802  1.75672005730573
 1  8.91191530083008 -1.63296157135714 -1.24822816091609
 1  8.70522504120412 -4.19475824722472  0.04037024462446
 1  10.49123846464647 -3.71447564966497 -0.49929004250425
 1  9.98410747214722 -3.44355544704470  1.26194663736374
 1  9.30043919451945  0.22454818101810  0.19211457525753
 1  10.36591668916892 -0.89592612651265  1.41788132813281
 1  11.70472561386139 -1.81970200210021 -0.37593196639664
 1  11.22521860856086 -0.66838974387439 -1.41669300290029
 1  11.64468550205020  1.21035546474647  0.21894233903390
 1  12.68757358065806  0.05990718211821  1.36636491669167
 1  13.48863566426643  0.43522795509551 -1.76647888658866
 1  14.83150248854886 -1.02528074077408  0.54975065506551
 1  14.04080965196520 -1.70015903220322 -0.74822114361436
 1  15.50750173857386 -0.95699889808981 -1.14429132163216
 1  13.68883707790779  2.85613023212321 -0.20790257795780
 1  14.56953365366537  1.72823311251125  0.84887210111011
 1  16.59740139593960  1.51407001970197 -0.65123161386139
 1  15.25235081848185  2.26202011481148 -1.96281766146615
 1  15.62302370697070  4.15104048204820 -0.67615961406141
 1  16.70808357845785  3.07772441384138  0.36399630003000
 1  18.18300198159816  2.83899539073907 -0.89325840544054
 1  16.81270199059906  4.74186071497150 -2.87605996579658
 1  18.56199212271227  4.43756326962696 -3.33663826892689
 1  17.26785698589859  3.15929699969997 -3.35278331293129
 1  18.65695174237424  4.83939515701570  0.33003466766677
 1  19.20671819411941  5.44916906910691 -1.37506442084208
 1  17.29163071397140  5.67148665176518 -0.59249331063106
 1 -5.63897919931993 -7.84070350345034  0.08214467676768
 1 -6.71576600690069 -6.78372545914591  0.64990849834984
 1 -5.14731289988999 -6.93102467806781  1.39352380898090
 8 -8.03378096969697  6.87698419921992 -0.42015979998000
 1 -9.28891718881888  6.19281492639264 -1.57946362916292

