%nproc=4
%Mem=4GB
# td=(NStates=1) iop(3/107=0140000000,3/108=0140000000) iop(3/107=0140000000,3/108=0140000000) CAM-B3LYP/6-31G(d,p) 

TD

0 1
12 -5.66777828442844  1.28508338263826  0.24930353555356
 6 -5.09717010421042 -2.22548101140114 -0.31974884168417
 6 -3.38951774087409  1.17507779257926  2.72986836013601
 6 -6.13597239293929  4.48821208540854  0.69979018781878
 6 -8.03134890199020  1.09971082178218 -2.25227290079008
 7 -4.48089234253425 -0.33801199299930  1.03311465026503
 6 -4.29564309180918 -1.60166386798680  0.57074942454245
 6 -3.22132525702570 -2.22369567236724  1.52421678537854
 6 -2.93723689468947 -1.26853974487449  2.69874643074307
 6 -3.55659308670867 -0.06897952565257  2.15088967416742
 6 -3.67788082748275 -1.74515795719572  3.95505820522052
 6 -1.97589278247825 -2.62083949324933  0.64786009150915
 6 -0.93406505000500 -3.50123770437044  1.42831641964196
 6  0.23903900440044 -3.95590943164316  0.60004819951995
 8  0.44842490679068 -3.49147646124612 -0.50145637983798
 8  1.17998484418442 -4.77648726602660  1.32580718801880
 7 -4.86661747804780  2.48131750865086  1.52825305700570
 6 -4.04840693049305  2.44886230793079  2.47978858215822
 6 -3.70566006970697  3.75763426562656  3.09943049924992
 6 -4.53906445914591  4.64315584388439  2.49632890419042
 6 -5.21480758495850  3.96844493969397  1.51963805610561
 6 -2.79705506860686  4.00108748454845  4.31552574197420
 6 -4.62626915751575  5.98049547004700  2.86346585138514
 8 -4.00839088708871  6.52840072807281  3.81043494339434
 7 -7.00537433733373  2.69273916971697 -0.68616027232723
 6 -6.94435715051505  3.94784440164016 -0.36500818951895
 6 -7.83822900930093  4.60974769956996 -1.23939804930493
 6 -8.46605605890589  3.68087501740174 -2.09378832323232
 6 -7.84176306680668  2.42549855865587 -1.71305725222522
 6 -8.21761475237524  6.02938284768477 -1.23739324812481
 6 -9.41273563686369  3.78961936013601 -3.27691232403240
 6 -8.64612606630663  4.14154230043004 -4.53168957295730
 7 -6.34809322832283 -0.09571458915892 -1.02537762976298
 6 -7.40035956555656 -0.00918698729873 -2.01000521122112
 6 -7.55504301150115 -1.33214491809181 -2.74800732333233
 6 -6.70005955475548 -2.13658323012301 -2.04122028772877
 6 -5.97931634703470 -1.40094365946595 -1.12664879527953
 6 -8.64037949574957 -1.71621174717472 -3.69935683188319
 6 -6.21027469456946 -3.50534611851185 -1.96363991909191
 8 -6.54902929842984 -4.53514121252125 -2.58880514561456
 6 -5.08102666476648 -3.55374342694269 -0.87765008480848
 6 -5.30909838723872 -4.65641108220822  0.12699637143714
 8 -5.66550232183218 -4.57410641874187  1.24001036443644
 8 -4.83615331353135 -5.82838403480348 -0.37603074767477
 6 -5.09518708290829 -7.03474532783278  0.40155198499850
 6  2.36571754495450 -5.11413253345335  0.60327428182818
 6  3.37448198319832 -4.25871603250325  1.00246814661466
 6  4.03976336653665 -3.32816568666867  0.26681031603160
 6  3.71595593449345 -3.11530647194719 -1.18253775827583
 6  5.10787721352135 -2.40263531113111  0.74357815661566
 6  6.44890976227623 -2.66752967816782  0.11179264666467
 6  7.69745506910691 -1.79950930643064  0.51556724722472
 6  9.03999482078208 -2.00727556115612 -0.21878966146615
 6  9.51083746544655 -3.42236287668767  0.04009055135514
 6  10.02511309040904 -0.90726096349635  0.27480999649965
 6  11.25037233963396 -0.80927053395340 -0.38250701690169
 6  12.13933162176217  0.32727735523552  0.07856470407041
 6  13.47303975977598  0.41838670857086 -0.62632739593959
 6  14.38238653765377 -0.83906330893089 -0.56986113701370
 6  14.25407134673467  1.66131230283028 -0.22737199199920
 6  15.51076526692669  2.11983001120112 -0.96947194219422
 6  15.98031061546155  3.49182393519352 -0.48061867506751
 6  17.35520076917692  3.90527836943694 -1.20967490269027
 6  17.18936152585258  4.15509040074007 -2.72884510871087
 6  17.93623302940294  5.22491775707571 -0.64550400930093
 1 -2.74580030283028  1.15070934633463  3.48673914231423
 1 -6.45654363316332  5.63636901730173  0.85838483018302
 1 -8.69103951115111  1.21518182108211 -3.25139061786179
 1 -3.60744180898090 -3.13886920232023  1.84363242404240
 1 -1.90242736663666 -1.06464412601260  2.77403867996800
 1 -3.24980475957596 -2.82172533373337  4.27281082508251
 1 -3.46530732343234 -0.98043794819482  4.75300733053305
 1 -4.61552406410641 -1.97706678757876  3.73091704220422
 1 -2.21442675637564 -3.07485700300030 -0.17298792259226
 1 -1.59631746414641 -1.61049016531653  0.25428354995500
 1 -0.45372080558056 -3.09878117371737  2.41113533223322
 1 -1.54513923552355 -4.33775090629063  1.91321311931193
 1 -1.60042015581558  3.67718724312431  4.09169507920792
 1 -3.13177416751675  4.83001020702070  4.79659591729173
 1 -3.22515551055106  3.12122311981198  5.05021002700270
 1 -5.19513257715772  6.77195138953895  2.32314763616362
 1 -10.00024915841584  2.80970162726273 -3.20641389308931
 1 -10.13377417531753  4.52067591169117 -3.10058034873487
 1 -9.23481328112811  4.38932734673467 -5.36966216851685
 1 -8.11067057645764  5.17306705210521 -4.50151010601060
 1 -8.05793564256425  3.23443280208021 -4.75314523932393
 1 -8.46889447904790 -0.89119966286629 -4.47512851115111
 1 -8.21893287628763 -2.76222962806281 -4.15854849184918
 1 -9.63002308180818 -1.91251807520752 -3.24713161986199
 1 -4.12947030443044 -3.88859368596860 -1.36133942084208
 1  2.53428456145615 -6.13281122412241  1.04311026792679
 1  2.13104384778478 -5.25276225232523 -0.39127257685769
 1  3.69380150245025 -4.10730001180118  1.94427943554355
 1  2.76370135683568 -3.57739336043604 -1.45264780578058
 1  3.78911352465247 -2.26431999129913 -1.75062753325332
 1  4.22453462746275 -3.63575730493049 -1.68556748264827
 1  4.98383842474247 -1.35424184818482  0.48390027352735
 1  5.29141766906691 -2.37717935033503  1.80822570287029
 1  6.84848237493749 -3.76911010311031  0.29106699069907
 1  6.27103726412641 -2.56459406840684 -1.04690528602860
 1  7.38645757705771 -0.76755008010801  0.40091733723372
 1  8.11291339423942 -1.91728831193119  1.54518890419042
 1  8.70410451975198 -1.84726300150015 -1.31627496559656
 1  8.80149466816682 -4.12101087248725 -0.23611740414041
 1  10.48582792359236 -3.46457065916592 -0.62214232773277
 1  9.55752481388139 -3.65226631813181  1.11219166186619
 1  9.38922807340734  0.14622034823482  0.33714907870787
 1  10.21267136463646 -1.08417495139514  1.26073561356136
 1  11.92605774707471 -1.68674870677068 -0.18575294849485
 1  11.35560164686469 -0.69778268316832 -1.45494682828283
 1  11.57941897539754  1.21024545374538 -0.01357091229123
 1  12.13508833213321  0.15639683108311  1.30195847604761
 1  13.24344114481448  0.56792122442244 -1.75426766546655
 1  14.55359469776978 -1.24580279297930  0.37541322132213
 1  13.99950552155216 -1.70498951525153 -1.10100642214221
 1  15.24424541294129 -0.45753895209521 -1.04382127462746
 1  13.45158335253525  2.48609322842284 -0.38577036473647
 1  14.51163786408641  1.76884717391739  0.90872808670867
 1  16.42314397019702  1.53605221792179 -0.88888537923792
 1  15.17014259765977  2.04989890269027 -2.05455683538354
 1  15.14523592819282  4.35382076007601 -0.58533053115311
 1  16.29136190629063  3.44176081748175  0.61139103950395
 1  18.19037271867187  3.33938542974297 -1.14582366196620
 1  16.62005272567256  5.03472000090009 -2.92705506530653
 1  18.13438936243625  4.33186269956996 -3.20709531463146
 1  16.53519371957196  3.29724079407941 -3.24614264886489
 1  18.21199724692469  5.22873409090909  0.37825949014901
 1  18.80702822512251  5.43378753095310 -1.14214112851285
 1  17.13822537343734  6.03943344644464 -0.72461652295230
 1 -4.70089539093909 -7.90572000510051 -0.01025456315632
 1 -6.18055248554855 -7.11812889948995  0.47494100160016
 1 -4.77159532813281 -6.69801137673767  1.36925138173817
 8 -7.76737432903290  6.89614611541154 -0.50883866786679
 1 -8.89577787488749  6.19813545844584 -1.93820950375037

