%nproc=4
%Mem=2GB
# td=(NStates=1) iop(3/107=0140000000,3/108=0140000000) iop(3/107=0140000000,3/108=0140000000) CAM-B3LYP/6-31G(d,p) 

TD

0 1
12 -6.82804537663766  0.48721786588659  0.10649826932693
 6 -4.62974008050805 -2.00078850065006  0.36619689668967
 6 -4.31030284568457  2.72585421852185  0.82640552215222
 6 -9.13344604930493  3.10367439153915 -0.08682818451845
 6 -9.26450454805481 -1.82541557115712 -0.65129518821882
 7 -4.78013308520852  0.45025442314231  0.48484751685169
 6 -4.03630089568957 -0.67880758755876  0.64833538893889
 6 -2.57371078967897 -0.40870262946295  0.85158722102210
 6 -2.46830679647965  1.13955410421042  1.13510567306731
 6 -4.02103836673667  1.64902498769877  0.92816759145915
 6 -2.25915220092009  1.32684448034803  2.67816237903790
 6 -1.65614436283628 -0.86084864826483 -0.34849352305231
 6 -0.26653477177718 -1.18630033663366  0.19254832833283
 6  0.80396147534753 -1.24856209310931 -0.87109528332833
 8  0.82367243534353 -0.77881049354935 -1.98372936313631
 8  1.81105139173917 -1.91883218181818 -0.41140606310631
 7 -6.69124086628663  2.57631800180018  0.37750149804981
 6 -5.47598815971597  3.34316295949595  0.68638493469347
 6 -6.06952116731673  4.77833751855186  0.72867773637364
 6 -7.35878659205921  4.78782487298730  0.45584216751675
 6 -7.84755645954596  3.38385719411941  0.17644247564756
 6 -5.00158507880788  5.88417584808481  0.93358102610261
 6 -8.11616317761776  6.02066898699870  0.21672119581958
 8 -7.73525744194419  7.11859347594759  0.35959381618162
 7 -8.73083663716372  0.70368122732273 -0.13968661776178
 6 -9.49899357175718  1.91709644494449 -0.36988804110411
 6 -10.88149477977798  1.42795266636664 -0.59296507770777
 6 -10.82945730323032  0.07853875827583 -0.96606746224622
 6 -9.53767543084308 -0.33826198939894 -0.58432050875087
 6 -11.83399017431743  2.40875706880688 -0.79709436023602
 6 -11.88405152565256 -0.84055761806181 -1.41000913461346
 6 -11.83287014911491 -1.50215238043804 -2.91387418211821
 7 -6.97550403330333 -1.38816137743774 -0.12819546404640
 6 -8.08335099669967 -2.27043704040404 -0.37988118611861
 6 -7.38183576867687 -3.69124644704470 -0.64167517761776
 6 -6.16669229042904 -3.63508266916692 -0.24107236783678
 6 -5.82157844654465 -2.14088290279028  0.05100128442844
 6 -8.22246076957696 -5.04096147394740 -0.74605742164216
 6 -4.97551375587559 -4.34353015111511 -0.16659863416342
 8 -4.84610635933593 -5.53004354265427 -0.23866335973597
 6 -3.92969669506951 -3.34057461666167  0.41222586978698
 6 -3.41382489338934 -3.49921609710971  1.97100681368137
 8 -3.91039627972797 -3.96933366816682  2.93333200300030
 8 -2.15319699459946 -3.20972727802780  2.08019795899590
 6 -1.39891841394139 -3.50182527262726  3.30977540274027
 6  3.09748164096410 -2.08963414031403 -1.23646489058906
 6  4.19013278067807 -1.10960796189619 -1.00520605290529
 6  5.20669142454245 -0.71101797319732 -1.79817601920192
 6  5.43966795059506 -1.24925806050605 -3.22287927012701
 6  6.20436426102610  0.19854220132013 -1.48240479897990
 6  7.45927462146215 -0.46425220732073 -0.94456119341934
 6  8.68532109240924  0.44659029362936 -0.62249072957296
 6  9.79739282868287 -0.35726264656466 -0.01748005370537
 6  9.57462497879788 -1.24717353205320  1.13755812461246
 6  10.89355168516852  0.67043189738974  0.31645648404840
 6  12.22644791529153 -0.00745943874387  0.45932424362436
 6  13.50806234883488  0.85933320802080  0.26408930733073
 6  14.75798213341334  0.19807308540854  0.56443110521052
 6  15.02231721982198 -0.14888716921692  2.38244816881688
 6  15.95709533793379  1.30494539653965  0.14628783408341
 6  17.29100857895790  0.64570979537954 -0.18492536643664
 6  18.50679022642264  1.59233642484248 -0.39016916371637
 6  19.84413661476148  0.91941043584358 -0.49810989468947
 6  19.80309011031103 -0.15334990469047 -1.45496128732873
 6  20.98550571947195  1.93249466746675 -0.45733082898290
 1 -3.31641227952795  3.61011226222622  0.92463186488649
 1 -9.79509349184918  3.61021010611061 -0.19348298219822
 1 -9.81684417601760 -2.70222062136214 -0.91977480338034
 1 -2.17658017481748 -1.00930854865487  1.94397444574457
 1 -1.75116445504550  1.42961343754375  0.66420287368737
 1 -1.39489087278728  0.97413572797280  3.01429214031403
 1 -2.10269844374437  2.26000457685769  2.91244736253625
 1 -2.87649998249825  0.97232511781178  3.52313818291829
 1 -2.20647966826683 -1.55436670967097 -0.51690947774777
 1 -1.51873704270427 -0.34261573447345 -1.09150894169417
 1  0.00763876217622 -0.36625805910591  0.79984584978498
 1 -0.04137785758576 -2.22645897969797  0.85620585268527
 1 -4.08007253765377  6.22499032693269  0.02534749244924
 1 -5.73561384198420  6.86819949584959  1.26984389048905
 1 -4.40726175437544  5.45002396339634  1.98356612891289
 1 -9.33657667176718  5.71035614481448  0.07773139733973
 1 -12.48605815941594 -1.56915778327833 -0.79764419161916
 1 -12.82793900890089 -0.05128872907291 -1.67362499889989
 1 -12.67385520862086 -1.98377049244924 -3.36010312741274
 1 -11.54224118791879 -0.65104768326833 -3.72549471897190
 1 -11.06956378077808 -2.36124944194419 -3.21767837523752
 1 -9.10532971627163 -4.91353790939094 -1.51246347434743
 1 -7.36214142874287 -6.10639065166517 -0.85036468836884
 1 -8.85178245824583 -5.81692365356536  0.49475408490849
 1 -3.25473505490549 -3.45088881378138 -0.22588089488949
 1  3.14876649204920 -2.97432470627063 -0.80351606870687
 1  2.93374766356636 -2.08246416141614 -2.14133436873687
 1  4.42690001770177 -0.82818556695670 -0.17412381078108
 1  4.47503056005601 -1.05077855035504 -3.57297741274127
 1  5.85689926832683 -0.56716539193919 -4.17412863676368
 1  6.00197402480248 -2.34267688198820 -3.13361754555456
 1  6.28690911281128  0.70858619601960 -2.49185180238024
 1  5.84209931933193  0.84566011381138 -0.63801806520652
 1  6.91472265116512 -1.22319051615162  0.11453317491749
 1  7.69457485588559 -1.11516030633063 -1.54556403230323
 1  8.86933906530653  0.97622821762176 -1.66911969726973
 1  8.10008850695069  1.30725591379138  0.11250695909591
 1  10.13015546264626 -0.95449289298930 -1.01704886248625
 1  8.77300954525453 -2.07803661936194  0.83111147194719
 1  10.63120919031903 -1.47499138033803  1.73825571697170
 1  8.90800401200120 -0.59321054345435  2.06211751685169
 1  10.96003964176418  1.10687344724472 -0.74946211781178
 1  10.54821456805680  1.59875875147515  1.20427430773077
 1  12.25244278647865 -0.51701414091409  1.26327001030103
 1  12.50130228422842 -0.83808202880288 -0.46173917141714
 1  13.23225809580958  1.23072261726173 -1.06080498509851
 1  13.22288433323332  1.61537578887889  0.96622241164116
 1  14.74118554435444 -1.21521903790379 -0.08410660186019
 1  14.97303720362036  0.78325872137214  3.13697647064706
 1  14.46342361586158 -1.11941961386139  2.78376587468747
 1  15.90399743284329 -1.11402498559856  2.49384586228623
 1  15.65385652055206  1.58816881028103 -1.12879285398540
 1  16.01065509810981  2.42993252875288  0.83303162636264
 1  17.46421773687369 -0.01212804220422  0.43499368606861
 1  17.07569509370937  0.11928009720972 -0.99532090949095
 1  18.46917192429243  2.07832438023802 -1.44361735003500
 1  18.42952294839484  2.26039994689469  0.28855552605261
 1  19.70439300050005  0.28294114031403  0.73560691149115
 1  19.78337665566557  0.28785383498350 -2.30211233643364
 1  20.76284057405740 -0.59216101790179 -1.45918005140514
 1  18.98585131213121 -1.18185590399040 -1.35077315201520
 1  20.89760653925392  3.14070364946495  0.11669242284229
 1  21.83626136643664  1.58270485318532 -0.23505622062206
 1  20.78976562946294  2.44960244744475 -1.36906170247025
 1 -0.44516014111411 -3.45425817521752  3.41512986098610
 1 -1.63716339733973 -4.27449472317232  3.83496413301330
 1 -1.27043105640564 -2.78812728982898  4.18191234443444
 8 -11.91860023432343  3.59636443564356 -0.45048686238624
 1 -12.89566007750775  1.99817105720572 -1.10561116611661

