%nproc=4
%Mem=2GB
# td=(NStates=1) iop(3/107=0140000000,3/108=0140000000) iop(3/107=0140000000,3/108=0140000000) CAM-B3LYP/6-31G(d,p) 

TD

0 1
12 -6.77413998609861  0.60882002610261  0.08166578607861
 6 -4.52724983148315 -2.12209063086309  0.49657993499350
 6 -4.11812362776278  2.74857649074908  1.05605848744875
 6 -8.92291499619962  3.29950397449745 -0.22821232293229
 6 -9.35115321292129 -1.65934896449645 -0.66906696539654
 7 -4.73051812371237  0.30676007370737  0.52756178827883
 6 -4.07522478807881 -0.90410011681168  0.65610616601660
 6 -2.43343676227623 -0.61978373757376  1.01008307060706
 6 -2.51251121692169  0.89390953975398  1.41690385288529
 6 -3.99732599549955  1.36397648284828  0.85473024772477
 6 -2.25387167286729  1.29331112701270  2.71657622042204
 6 -1.73699244764476 -0.97231979537954 -0.27327600130013
 6 -0.28441655995600 -1.51089279587959  0.28234730823082
 6  0.67930901010101 -1.50629786668667 -0.87198537233723
 8  0.61168123622362 -1.08911152365237 -2.02135312551255
 8  1.79180946754676 -2.21837213581358 -0.43594851735174
 7 -6.61071281348135  2.62359272927293  0.37819156705671
 6 -5.46363692459246  3.26205484868487  0.60996729292929
 6 -5.77069128432843  4.72928261306131  0.86517138573857
 6 -7.14009472287229  4.88934502500250  0.54343092639264
 6 -7.69768147204721  3.56688549694970  0.13406823822382
 6 -4.78258317861786  5.81238866936694  1.22429009700970
 6 -7.91360292159216  6.21242816291629  0.52513203690369
 8 -7.33790770697070  7.35192680928093  0.59835769256926
 7 -8.79690324382438  0.79071993119312 -0.26654930403040
 6 -9.50349402180218  2.06032076737674 -0.51302235453545
 6 -10.85034166446645  1.71341121222122 -0.98598437963796
 6 -11.02966732423242  0.33100400480048 -1.01968282378238
 6 -9.65594725802580 -0.16273443664366 -0.77455953265327
 6 -11.74797157245725  2.71104729782978 -1.26729137993799
 6 -12.16778989948995 -0.47577113941394 -1.37771590529053
 6 -12.30917777987799 -0.77759992519252 -2.70471326602660
 7 -6.97828431133113 -1.37931049234924 -0.07220986548655
 6 -8.11039370097010 -2.33997399409941 -0.39194239223922
 6 -7.69639722482248 -3.79362668506851 -0.33747475757576
 6 -6.34756037723772 -3.58602776367637 -0.01652991359136
 6 -6.08423471217122 -2.32418123262326  0.10724690899090
 6 -8.41742026552655 -4.94343172097210 -0.76420923682368
 6 -5.15093129762976 -4.42154795289529  0.17936596229623
 8 -5.01373312201220 -5.61639217751775  0.22473297989799
 6 -3.87345107050705 -3.49185974517452  0.53519816701670
 6 -3.44223773467347 -3.72876905240524  1.80767048004801
 8 -3.86176141624162 -4.07988472327233  2.96080475027503
 8 -2.00324199909991 -3.76278258355836  1.68405834503450
 6 -1.36039456155616 -4.17245233533353  2.87854227942794
 6  2.94602649544955 -2.29825500240024 -1.29863110721072
 6  3.96893066046605 -1.20349735083508 -1.02335786808681
 6  5.16471722712271 -1.09837670907091 -1.73806000760076
 6  5.31812579637964 -1.72589572427243 -3.11983896609661
 6  6.21878570317032 -0.16108376127613 -1.37033359185919
 6  7.50526922092209 -0.81463724582458 -0.89447618491849
 6  8.58539109940994  0.31748738333833 -0.61484996549655
 6  9.73777686708671 -0.42061898219822 -0.10638894459446
 6  9.58523603990399 -1.13801261596160  1.51912628142814
 6  10.96048837883788  0.49582443664366 -0.03760892249225
 6  12.48360363086309 -0.12309100190019  0.18332664386439
 6  13.46969851245125  1.02001927662766  0.14894779317932
 6  14.90197653285329  0.33062634073407  0.46527118921892
 6  15.04988997709771  0.26732445194519  2.00054997899790
 6  15.77959758815882  1.49343424542454 -0.01908870357036
 6  17.30170964906491  0.99270449484948  0.16581970807081
 6  18.49588913631363  1.86271346254625 -0.52527267406741
 6  19.91031323242324  1.39279777457746 -0.21849193289329
 6  20.08439824112411  0.04865029532953 -1.35075086628663
 6  21.00666783568357  2.65255667366737 -0.67422251815182
 1 -3.09325996429643  3.42641389238924  1.37629703140314
 1 -9.50761474397440  4.15653473857386 -0.39031266516652
 1 -10.00626311791179 -2.25655605490549 -0.87918074397440
 1 -2.47925044184419 -1.41940955875588  1.85021506980698
 1 -1.68080741934193  1.35780625682568  0.91644809820982
 1 -1.24310569426943  1.04812312671267  2.36145685678568
 1 -2.55143331723172  2.21905048144814  2.86431254905491
 1 -2.68163049554956  0.62896078137814  3.45250111921192
 1 -2.20811983228323 -1.70538181118112 -0.82874066086609
 1 -1.45696086508651 -0.06850832373237 -1.10348013881388
 1 -0.02421442314231 -0.77909934323432  1.12959882508251
 1 -0.36712043184319 -2.61466780058006  1.01480171227123
 1 -3.77079160956096  5.72949077697770  0.36093105080508
 1 -5.11174145474547  6.52529520542054  1.06725363146315
 1 -4.21852288048805  5.70362932393239  2.27109488178818
 1 -8.85896891099110  6.34373948314831  0.12507613181318
 1 -12.08340789438944 -1.29382024952495 -0.52643707090709
 1 -13.14272048704870 -0.00897449764976 -1.07532516891689
 1 -12.96246406950695 -1.73157527292729 -2.70969808690869
 1 -12.52311927572758 -0.02746532503250 -3.50238240774077
 1 -11.15490231463146 -1.42038535553555 -3.10361696909691
 1 -9.00923010631063 -5.31363791939194 -1.74281650965097
 1 -8.14708992359236 -6.08149816241624 -0.63676332823282
 1 -9.25397267726773 -4.78231019221922  0.00414502400240
 1 -3.26998658005801 -3.62921664656466 -0.45438374517452
 1  3.81290290569057 -3.18596587038704 -1.35599131623162
 1  2.63149743854385 -2.17496341134113 -2.41319155445545
 1  3.53838116581658 -0.30372312071207 -0.11384778317832
 1  4.47878093509351 -1.58687215971597 -3.84192430743074
 1  6.23948752715272 -1.55795447084708 -3.14904612851285
 1  5.49687351475148 -2.84271688598860 -2.85191937573757
 1  6.31436185808581  0.67886322372237 -1.99231184838484
 1  6.12096720612061  0.31360690849085 -0.40700496389639
 1  7.07786896579658 -1.33894209130913 -0.13726200460046
 1  7.58345374377438 -1.55797458775878 -1.63857333323332
 1  8.66938907030703  0.93960455525553 -1.95586837213721
 1  8.28991748984899  1.44301949014902  0.12101781018102
 1  10.18158060516052 -1.12213965766577 -0.85652280988099
 1  8.85393763806381 -1.65925474117412  1.41331969276928
 1  10.48599466886689 -1.74115799699970  1.87177906930693
 1  9.35162837443744 -0.35205642804280  2.18764006910691
 1  11.15742938073807  1.31294405430543 -1.18033520512051
 1  10.57358710531053  1.45513438903890  0.86783066336634
 1  12.53195073727373 -0.57949038853885  1.25710939423942
 1  12.56874902890289 -0.78564678527853 -0.38895189268927
 1  13.57338220822082  1.51037058205821 -1.09896880148015
 1  13.06408845364536  1.71143539483948  0.96240202960296
 1  14.84842626842684 -0.69222673867387  0.16124793359336
 1  15.05516541644164  1.06029642514252  2.71857463046305
 1  13.96931420492049 -0.27529520142014  2.36233373147315
 1  15.93074010711071 -0.34907849094909  1.96577305500550
 1  15.90012114701470  1.95545553895390 -0.98608858355836
 1  15.84307834043404  2.52706224172417  0.64912323552355
 1  17.77476879197920  0.94303747434743  1.39479966666667
 1  17.45634315851585 -0.33908573937394 -0.37419879727973
 1  18.20671567866787  2.02872942074207 -1.33582657095710
 1  18.24544454055406  2.99063297019702  0.11716838733873
 1  20.06412897409741  1.14141698789879  0.65990934173417
 1  20.12610092809281  0.67493254285429 -2.33383550875087
 1  20.97730202020202 -0.33384518631863 -1.39373350675068
 1  19.27791051805180 -0.82598031643164 -0.88369644434443
 1  21.11365814441444  3.38057763686369  0.07809856345635
 1  21.95803354365437  2.20374695739574 -0.79228194319432
 1  20.71477813071307  2.84091157835784 -1.67788258455846
 1 -0.20345597069707 -4.55939868926893  2.35492384038404
 1 -1.82972265326533 -4.90701797549755  3.36027666426643
 1 -1.14303831713171 -3.38454693179318  3.60845499869987
 8 -11.81927030133013  3.89763456265627 -0.97982979667967
 1 -12.48938945044505  2.08626986708671 -1.89808041304130

