%nproc=4
%Mem=4GB
# td=(NStates=1) iop(3/107=0140000000,3/108=0140000000) iop(3/107=0140000000,3/108=0140000000) CAM-B3LYP/6-31G(d,p) 

TD

0 1
12 -5.70390189678968  1.13195807010701  0.23595220042004
 6 -5.03920430763076 -2.10940940424042 -0.39077594439444
 6 -3.59343813291329  0.97849813461346  2.93164853815382
 6 -6.26809560526053  4.43571683588359  0.68913912271227
 6 -7.97171293839384  1.22466331703170 -2.43990166366637
 7 -4.42176642994299 -0.28377656945695  1.21160249904991
 6 -4.37063059055906 -1.62446614821482  0.69387173677368
 6 -3.29857298179818 -2.37390069286929  1.49429379307931
 6 -3.01162433343334 -1.43978686958696  2.69689624572457
 6 -3.71291871927193 -0.10794342204220  2.30129471467147
 6 -3.57900093949395 -1.99497293869387  4.11415411481148
 6 -2.02352754595460 -2.64862227152715  0.64075938143814
 6 -1.08233987748775 -3.55620320092009  1.39888347634763
 6  0.18662376287629 -3.85033887458746  0.66636483118312
 8  0.46557662196220 -3.29372668626863 -0.40562679687969
 8  1.08469531523152 -4.67739735703570  1.46300090739074
 7 -5.03374419071907  2.59701907880788  1.59195942764276
 6 -4.10448253805381  2.27424484618462  2.54727533083308
 6 -3.90027953165317  3.57578608080808  3.26968752495250
 6 -4.57564811751175  4.51460298859886  2.61511078237824
 6 -5.36807291149115  3.93028112331233  1.53022911521152
 6 -2.92216757985799  3.68017539333933  4.35319950935094
 6 -4.62445897649765  5.94012143264326  2.92041154595460
 8 -3.94092414041404  6.47127501550155  3.78328222812281
 7 -6.95519931983198  2.57739763556356 -0.68058971527153
 6 -6.96862957775778  3.89690930813081 -0.31340302900290
 6 -7.82854804120412  4.65493221802180 -1.24554866436644
 6 -8.42617207050705  3.76062299219922 -2.09007795219522
 6 -7.78162705320532  2.45126113491349 -1.78993493999400
 6 -8.22326531743174  6.02957286668667 -1.30346985578558
 6 -9.49057342064206  3.90136053425342 -3.16978161096110
 6 -8.77516897059706  4.23595174137414 -4.46430283428343
 7 -6.32113053205321 -0.08361337903790 -1.18679377137714
 6 -7.33664319391939 -0.01763783238324 -2.22651686238624
 6 -7.62883039023902 -1.34849655325533 -2.77480000260026
 6 -6.69947949674967 -2.08362793459346 -2.15945211091109
 6 -6.03664207960796 -1.41971553665367 -1.15392152255225
 6 -8.62349780758076 -1.58181830783078 -3.88825572177218
 6 -6.17055072217222 -3.54247983188319 -2.12255581068107
 8 -6.55069946544655 -4.44775247364737 -2.76519278437844
 6 -5.06928549064907 -3.54695274787479 -1.01655397519752
 6 -5.35468294569457 -4.67790323142314  0.07265093689369
 8 -5.64489026062606 -4.48319732783278  1.24854121752175
 8 -5.03824352255226 -5.90538173457346 -0.34508765336534
 6 -5.37359492369237 -7.03534538783878  0.37113894369437
 6  2.41035200840084 -4.93575469566957  0.76963091749175
 6  3.44620915591559 -3.94998515941594  1.11205910571057
 6  4.14776416661666 -3.19825269536954  0.21739537453745
 6  3.79406374527453 -3.21745668696870 -1.27250675517552
 6  5.25530195599560 -2.33500854845485  0.61016481528153
 6  6.52417728902890 -2.53803672887289 -0.02673120572057
 6  7.66941226482648 -1.64794414991499  0.65954164466447
 6  9.02416323762376 -1.80192502610261  0.00875309280928
 6  9.56914329602960 -3.19185982638264  0.26022256455646
 6  10.08492907200720 -0.78232847024702  0.43649616511651
 6  11.47888519091909 -0.94088369526953 -0.22905167136714
 6  12.28331602020202  0.30387501500150  0.15475232283228
 6  13.63421587738774  0.38762363226323 -0.56891165436544
 6  14.60834913391339 -0.65092449504951 -0.25408955985599
 6  14.29194513411341  1.75660183178318 -0.28581783658366
 6  15.55492968336834  2.07909593779378 -1.10493548854885
 6  16.12906549094910  3.53311806460646 -0.84741535473547
 6  17.45043029212921  3.79167700930093 -1.45919985518552
 6  17.43882647234723  3.70318521022102 -2.92518474267427
 6  17.97828723482348  5.25937120242024 -0.92780223912391
 1 -2.80794651745174  0.91994627002700  3.66936740514051
 1 -6.41184916371637  5.58162354275428  0.79032802450245
 1 -8.55576598379838  1.14678498139814 -3.24958043684368
 1 -3.64373543834383 -3.34578989438944  1.88781684248425
 1 -2.00046717061706 -1.39785744734473  3.02406368246825
 1 -3.26200597969797 -3.05111827302730  4.39901344534453
 1 -3.42185297799780 -1.29676958135814  4.82460449024903
 1 -4.54711722342234 -2.32086116701670  3.95573952445245
 1 -2.33132844654466 -3.27863738103810 -0.20135075887589
 1 -1.55326315871587 -1.79496861316132  0.20266838843884
 1 -0.61337677117712 -3.03044434003400  2.32482670137014
 1 -1.47189191079108 -4.53547067826783  1.82590438843884
 1 -1.86542665646565  3.40430995539554  4.17039294899490
 1 -2.67820881098110  4.87233443944394  4.62819907760776
 1 -2.93617661266127  3.24703570107011  5.41977698369837
 1 -5.48736180008001  6.47481167556756  2.13792911431143
 1 -9.90243937743774  2.88323898099810 -3.30702395409541
 1 -10.19523032093209  4.49540338443844 -3.06323661436144
 1 -9.45343514331433  4.33368178217822 -5.38911411371137
 1 -8.50709021842184  5.15075482088209 -4.17620757575758
 1 -7.97379722872287  3.57181654045405 -4.62581250605060
 1 -8.51449903950395 -0.91311185408541 -4.70509150745074
 1 -8.64239522252225 -2.73372677777778 -4.36569920692069
 1 -9.72144222372237 -1.43228005140514 -3.58741564826483
 1 -4.22996035343534 -3.98743356995700 -1.50435372227223
 1  2.67873900690069 -5.98743668666867  1.42008796569657
 1  2.14509525292529 -4.97288426452645 -0.30542399199920
 1  4.01681380368037 -3.94620390219022  2.02558756635664
 1  2.71776676337634 -3.12415803690369 -1.34886742774278
 1  4.14723933723372 -2.31278483778378 -1.75969844034403
 1  4.15637781178118 -4.06319004820482 -1.80822974887489
 1  4.96289633053305 -1.20377680168017  0.42588447194719
 1  5.45915444274427 -2.05180681308131  1.54323920422042
 1  6.82003953065307 -3.67006019811981 -0.17884000000000
 1  6.49252941334133 -2.23746135513551 -1.10636123162316
 1  7.45288421972197 -0.52516584168417  0.52578982448245
 1  7.71023312621262 -1.92042862596260  1.71879626492649
 1  9.07585169446945 -1.88916719191919 -0.99465280338034
 1  8.96139065776578 -4.04844361576158 -0.02947674007401
 1  10.31085042584258 -3.53387758985899 -0.23639375287529
 1  9.79243830523052 -3.27317840934093  1.39627006970697
 1  9.76160531113111  0.15089081528153  0.50272563636364
 1  10.60094019151915 -1.25971250515051  1.41330087008701
 1  12.12098724002400 -1.79040907280728 -0.12878725192519
 1  11.46889297599760 -0.85692859775978 -1.25818715231523
 1  11.83999503300330  1.15149957915792  0.01862230703070
 1  12.60083490679068  0.10299149054906  1.23792207240724
 1  13.66193299399940  0.64033846614661 -1.74685692439244
 1  14.89876921522152 -0.75119333203320  0.76509218921892
 1  13.97151272227223 -1.67303631993199 -0.47546386788679
 1  15.53410439883988 -0.69823302150215 -0.71539843234323
 1  13.40926912111211  2.47898251735174 -0.30674246194619
 1  14.48300500080008  1.71541183038304  0.83773098699870
 1  16.44044570037004  1.45333394609461 -0.84884137483748
 1  15.26703228662866  2.06320023282328 -2.12677405710571
 1  15.41117252185219  4.37190256825683 -1.15569756785679
 1  16.13565633573358  3.64596123752375  0.26812671307131
 1  18.30674435583558  3.10144163536354 -1.01153023262326
 1  16.74584530493049  4.60941747064706 -3.11413377317732
 1  18.41877780128013  3.75218473177318 -3.53586819191919
 1  17.05819601980198  2.85798686868687 -3.35139317391739
 1  18.04565061226122  5.21395261276128  0.11812347654765
 1  19.09129665196520  5.43602775497550 -1.41183809820982
 1  17.48929047994799  6.06282578567857 -1.36872093339334
 1 -4.98981428282828 -7.91161059415942 -0.23405694339434
 1 -6.60445487578758 -7.05570265686569  0.51007451495149
 1 -5.12042021062106 -6.93177475307531  1.41782623922392
 8 -7.83958154975498  6.92981948274828 -0.52485026902690
 1 -8.89402769986999  6.37995364026403 -2.16828251105111

