%nproc=4
%Mem=2GB
# td=(NStates=1) iop(3/107=0140000000,3/108=0140000000) iop(3/107=0140000000,3/108=0140000000) CAM-B3LYP/6-31G(d,p) 

TD

0 1
12 -6.81282385448545  0.61873101720172  0.13062068156816
 6 -4.38792589908991 -1.94478290009001  0.30069034603460
 6 -4.28849066446645  2.74768640174017  1.08414129572957
 6 -9.02055476017602  3.29249327342734 -0.32632213391339
 6 -9.38034613221322 -1.75043807340734 -0.68944900360036
 7 -4.66833190509051  0.41035043274327  0.46376540864086
 6 -3.92810007560756 -0.75741544834483  0.44210476587659
 6 -2.60860427902790 -0.53641540074007  0.87056911921192
 6 -2.40677064286429  1.13447359615962  1.07320948344834
 6 -3.96011227412741  1.44584466966697  0.82116689138914
 6 -2.20842712841284  1.42252404830483  2.44278884168417
 6 -1.56140488888889 -1.05586815021502 -0.12956162986299
 6 -0.13775189348935 -1.33450515711571  0.43860293379338
 6  0.98508958815882 -1.21584882178218 -0.60120829462946
 8  0.83569363746375 -0.57463007550755 -1.67282827302730
 8  2.03710399699970 -1.98050834943494 -0.26674159665967
 7 -6.71079282148215  2.56054642464246  0.31469521742174
 6 -5.53528408930893  3.26201484468447  0.62855915211521
 6 -6.04406862206221  4.70675035983598  0.79671454005401
 6 -7.27349806320632  4.84636072657266  0.56655323862386
 6 -7.89928163206321  3.48870767916792  0.14020885228523
 6 -5.05919083938394  5.86061349184919  1.18570623862386
 6 -8.12310387168717  5.99271619171917  0.55929545324532
 8 -7.60566448264827  7.11878349494950  0.71773963076308
 7 -8.72603615711571  0.77153801300130 -0.46250889999000
 6 -9.49335300770077  1.83277801310131 -0.54475552785279
 6 -10.83256988728873  1.62212208330833 -0.86105188638864
 6 -10.95593995149515  0.20553145754575 -1.22088294379438
 6 -9.68035969926993 -0.40843900710071 -0.86368844554455
 6 -11.89123589888989  2.58229442254225 -1.17005165596560
 6 -12.12155527602760 -0.65656921922192 -1.53179131283128
 6 -12.16704356645665 -1.13016518171817 -3.10042283698370
 7 -6.99627611051105 -1.35169773107311 -0.20636328082808
 6 -8.23371603320332 -2.33465346204621 -0.35726892489249
 6 -7.66969455455546 -3.66762408480848 -0.36068707880788
 6 -6.38167378857886 -3.64604376527653 -0.04054231483148
 6 -5.99928621732173 -2.24922373687369  0.21357754205421
 6 -8.53329185268527 -4.96805418321832 -0.74815763166317
 6 -5.20536674117412 -4.47231302940294  0.17050507620762
 8 -5.05074682338234 -5.69471000930093  0.15015552215221
 6 -3.90691441684168 -3.42296285548555  0.44515916311631
 6 -3.39266277717772 -3.65295147064706  1.96882659565957
 8 -4.12036727682768 -3.77375411021102  2.90042871267127
 8 -2.07352902780278 -3.62981928722872  1.94362430163016
 6 -1.25102362446245 -3.81104619471947  3.14594902010201
 6  3.04169606240624 -2.11973715061506 -1.27306855095510
 6  4.13600736813681 -1.32104910601060 -0.77281281358136
 6  5.14915567096710 -0.76363323472347 -1.41402760436044
 6  5.18171215501550 -1.00203333803380 -3.02157914011401
 6  6.19596342094209  0.02870521762176 -0.87892445094509
 6  7.52590128412841 -0.71253703580358 -0.90221695899590
 6  8.58706126642664  0.19768540314031 -0.09251773227323
 6  9.92450553995400 -0.63374029432943  0.07832952725273
 6  9.70514803110311 -1.59697851255126  1.21808617741774
 6  10.98608093809381  0.38473332753275  0.34470930933093
 6  12.38309357985799 -0.18228692149215  0.21116942814281
 6  13.49281082368237  0.83262053675368  0.32318521692169
 6  14.90539687488749  0.29350262836284  0.36748141024102
 6  15.24944993309331 -0.40230251075107  1.47208713271327
 6  16.02587221562156  1.26405130713071  0.15203840914091
 6  17.41973145124512  0.68826405080508 -0.19852672657266
 6  18.36109565696570  1.85956314751475 -0.34499464626463
 6  19.85606780788079  1.26556505130513 -0.60401048474847
 6  20.06576637793779  0.46550198049805 -2.06296208740874
 6  20.86124329322933  2.33040445844584 -0.52509760566057
 1 -3.51225186348635  3.32631388238824  1.49083848554856
 1 -9.85582956545655  4.07916700180018 -0.51784541844184
 1 -10.09472196379638 -2.17470787008701 -1.14325715161516
 1 -2.54775729252925 -1.10090770857086  1.88362841114111
 1 -1.91093043164316  1.67595807200720  0.28474492789279
 1 -1.26530791449145  1.09817813221322  3.08993970507051
 1 -1.93485165906591  2.44996357275728  2.46004212201220
 1 -2.91721405390539  1.73396128142814  3.44362023112311
 1 -1.71795081538154 -2.02831410441044 -0.63487127392739
 1 -1.62400756975697 -0.62731420432043 -1.14533432423242
 1  0.23040103840384 -0.50770220352035  1.25938180338034
 1 -0.12081580138014 -2.38161449524952  0.73740397249725
 1 -4.22966749714971  6.27929575747575  0.48686364406441
 1 -5.68428870947095  6.80518319421942  1.09134604070407
 1 -4.48881991019102  5.28757771877188  2.20976874917492
 1 -9.03642665676568  6.15368047724772  0.19795341954195
 1 -12.38120767436744 -1.37489835733573 -1.17207163436344
 1 -13.00829704470447 -0.10398399859986 -1.37467510391039
 1 -13.23355117821782 -1.60298241364136 -3.37201431853185
 1 -12.03848081188119 -0.28182076057606 -3.86208837833783
 1 -11.47139396379638 -2.16207952495250 -3.33070967836784
 1 -8.52313149644965 -5.45911246684669 -1.67795002300230
 1 -8.22582779737974 -6.02961297389739 -0.54223387528753
 1 -9.12838011801180 -4.41153311451145 -0.14948033853385
 1 -2.89662924432443 -3.39195292019202 -0.16337464426443
 1  3.36181779717972 -3.04760203400340 -0.97797351445144
 1  2.72831712051205 -2.18794470947095 -2.07973820912091
 1  4.51078840654066 -1.32915566396640  0.46977057865787
 1  4.24798785578558 -0.36386985948595 -3.43333344834483
 1  6.41351492989299 -0.35744441984198 -3.37150837473747
 1  4.95148897629763 -2.49189180348035 -2.94062824662466
 1  6.49651007290729  1.15468080548055 -1.19440205740574
 1  5.86920202960296  0.33512906070607  0.27172290889089
 1  7.46349752865287 -1.75362355945595 -0.51983026142614
 1  7.78616401480148 -1.31197998829883 -1.89923939983998
 1  8.79093122452245  1.01591218601860 -0.77199998529853
 1  8.28906740484048  0.67402259045905  0.94098980738074
 1  10.06643909100910 -1.13434087778778 -0.83112026962696
 1  9.06463870817082 -2.35339415511551  0.83556191699170
 1  10.64938100750075 -1.94574845604561  1.84324621602160
 1  9.11733494509451 -1.05955717811781  2.06708801390139
 1  10.97063070087009  0.93916667656766 -0.45383255485549
 1  10.87977772437244  1.19251812741274  1.41392527282728
 1  12.64045158735874 -0.82115455495550  1.14128781208121
 1  12.69297145114511 -0.97674589518952 -0.66637963546355
 1  13.45267013701370  1.54715426042604 -0.65915482008201
 1  13.22885493029303  1.45928017931793  1.34909069846985
 1  14.69233065886589 -0.32835035103510 -0.56878506970697
 1  15.62588248814882  0.09717011251125  2.39968274127413
 1  14.64463173667367 -1.41789946184618  1.74890238833883
 1  15.95977301040104 -0.99710329342934  1.13234971267127
 1  15.56353748864886  1.61548154155416 -0.87581755645565
 1  16.17398143074308  2.26459599509951  0.81018934213421
 1  17.65452676777678 -0.04112094149415  1.11877206390639
 1  17.13456098029803 -0.09772160296030 -1.15184656205621
 1  17.99088409550955  2.85591213901390 -1.10107309560956
 1  18.32223221932193  2.39141304820482  0.73225989648965
 1  19.94202676387639  0.79242208840884  0.28434178497850
 1  20.27262558055805  1.28579362896290 -2.90420254545454
 1  21.07736202620262 -0.35352715451545 -1.99135326872687
 1  19.17645037203721 -0.18987670607061 -2.20022809750975
 1  20.60820759935994  2.78168774787479  0.47985873947395
 1  21.85518325862586  2.01947853055306 -0.66025874087409
 1  20.99215586848685  3.28135562276228 -1.25374017031703
 1 -0.31940756585659 -4.09049179857986  2.72195054305430
 1 -1.52943262426243 -4.47665493919392  3.99843047964796
 1 -1.34442845614561 -3.01113959105911  3.60701485468547
 8 -11.86350472477248  3.76886168536854 -1.06327814151415
 1 -13.16368688018802  2.36654789488949 -1.46605721072107

