%nproc=4
%Mem=4GB
# td=(NStates=1) iop(3/107=0140000000,3/108=0140000000) iop(3/107=0140000000,3/108=0140000000) CAM-B3LYP/6-31G(d,p) 

TD

0 1
12 -5.56676818341834  1.24109898419842  0.13047165236524
 6 -5.01000138733873 -2.11264972827283 -0.37416428322832
 6 -3.50324911401140  1.12277256205621  2.78573394669467
 6 -6.25376417211721  4.49775303950395  0.73331354015402
 6 -8.12298806590659  1.12475332603260 -2.31657933143314
 7 -4.40105435873587 -0.30478867066707  1.04792613141314
 6 -4.33926745424542 -1.70136383798380  0.61629397899790
 6 -3.27792091659166 -2.30600390319032  1.42493685738574
 6 -2.90825399639964 -1.27524041494149  2.58269482558256
 6 -3.63027045444544 -0.08307093479348  2.09334391959196
 6 -3.30143318271827 -1.78696213761376  4.05206790619062
 6 -1.99362455565557 -2.65458286758676  0.57869317481748
 6 -1.05092673617362 -3.51336891749175  1.33053664166417
 6  0.17683278377838 -3.92013585428543  0.42077027172717
 8  0.54528459275928 -3.40631794539454 -0.59388562276228
 8  0.97983482918292 -4.73926354365437  1.10238484578458
 7 -4.90857167346735  2.65197457435744  1.44454468616862
 6 -3.99527161696170  2.41145856755676  2.48730933423342
 6 -3.81946144984498  3.65214371657166  3.20386094229423
 6 -4.50303085578558  4.62164369266927  2.64039331063106
 6 -5.29369547374737  3.97756585178518  1.54953104540454
 6 -2.84849021212121  3.84410178597860  4.40063425282528
 6 -4.68139467006701  5.94792221272127  2.98766827162716
 8 -3.99913996199620  6.57178506650665  3.86290018991899
 7 -6.90899469936994  2.52931282708271 -0.73126478277828
 6 -7.07034974977498  3.87671728892889 -0.34536622532253
 6 -7.94968015441544  4.54690141494149 -1.23180729022902
 6 -8.47063651695169  3.61962889278928 -2.11592053645364
 6 -7.80043893439344  2.44025003380338 -1.82247819431943
 6 -8.32504549544955  5.98277818721872 -1.18287779657966
 6 -9.49131349464947  3.89120951915192 -3.19542417521752
 6 -8.77702915661566  4.37280542674267 -4.50422682668267
 7 -6.38766718571857 -0.09186420412041 -1.06478157015702
 6 -7.44475400500050 -0.04342041064106 -2.13823803450345
 6 -7.55692319951995 -1.28498020162016 -2.67449997259726
 6 -6.75928547734773 -2.10652022382238 -2.05850201590159
 6 -6.00057847324732 -1.39429299439944 -1.01483761416142
 6 -8.40455591339134 -1.72395252125212 -3.91150804700470
 6 -6.19774344144414 -3.54635021892189 -2.03249680478048
 8 -6.51759615511551 -4.49979767816782 -2.64506077117712
 6 -5.06015457755776 -3.57376542914291 -0.91884420422042
 6 -5.28584606200620 -4.63192863396340  0.09800347214721
 8 -5.73514928652865 -4.48292730083008  1.15444180758076
 8 -4.97841753995400 -5.84892608900890 -0.39390253485349
 6 -5.35121268546855 -6.99343119641964  0.42886471627163
 6  2.20873184638464 -5.05952707290729  0.52277623202320
 6  3.40202473747375 -4.22696285718572  0.98324622442244
 6  4.14068345854585 -3.28341121122112  0.36704033903390
 6  3.88030236913691 -3.05505044634463 -1.15422492699270
 6  5.22332875867587 -2.51679672727273  1.04740853965397
 6  6.56016088738874 -2.68356128132813  0.35472694009401
 6  7.71439676327633 -1.69721907740774  0.78066375687569
 6  8.95617643894389 -1.89465429902990  0.04571678917892
 6  9.60622700440044 -3.29456009640964  0.27443398569857
 6  9.99815039413941 -0.77014725212521  0.56238875437544
 6  11.36246354875487 -0.77461706860686 -0.14425319151915
 6  12.23215090369037  0.33413804130413  0.21070791839184
 6  13.62457491329133  0.43888875877588 -0.53473823702370
 6  14.53404170317032 -0.78812821542154 -0.33944809570957
 6  14.31698763836384  1.79172534413441 -0.15820507530753
 6  15.49445363576358  2.07716574477448 -0.98894388938894
 6  16.15988857325733  3.41688644144414 -0.73538415161516
 6  17.41558680778078  3.79044688628863 -1.54098803400340
 6  17.14996758645864  3.91492638433843 -3.08115033923392
 6  17.94818422452245  5.15206047134714 -1.09628908780878
 1 -2.91710743354335  1.02243651905190  3.78386885528553
 1 -6.69608758755876  5.65314069446945  0.91162015371537
 1 -8.95050545774577  1.21932223512351 -3.02808828762876
 1 -3.57292835763576 -3.44226954235423  1.85749381018102
 1 -1.78372549644964 -1.15578323992399  2.45530680678068
 1 -2.66902668176818 -2.78542170337034  4.14359790379038
 1 -2.82825361806181 -0.94530443484348  4.85945797559756
 1 -4.47206971867187 -1.82134121502150  3.98219216971697
 1 -2.36932224592459 -3.23043256055605 -0.21535215901590
 1 -1.56581441384138 -1.69330844714471  0.17849597119712
 1 -0.76069150265027 -3.10597189278928  2.16696091479148
 1 -1.51361608320832 -4.30743787498750  1.79022082008201
 1 -1.74040415421542  3.44583410781078  4.32741865156516
 1 -2.79849083918392  4.86396360236024  4.62573883158316
 1 -3.24706770177018  3.43733473097310  5.34374938093809
 1 -5.47726078997900  6.50103429782978  2.43611893329333
 1 -10.02316144964496  2.84370502760276 -3.48095134683468
 1 -10.13477427532753  4.78013185728573 -2.70792108280828
 1 -9.60173997379738  4.50807922192219 -5.37286248854886
 1 -7.98175768516852  5.23630337573757 -4.33775373037304
 1 -8.13670351935193  3.56965632443244 -4.93264318911891
 1 -8.39315690529053 -1.01371191409141 -4.79462046034603
 1 -7.84356533953395 -2.82029543464346 -4.20714335133513
 1 -9.59005908540854 -2.05898272167217 -3.47071397809781
 1 -4.21512887028703 -3.82847767436744 -1.43930721762176
 1  2.53398453145315 -5.95055299829983  0.74449040594059
 1  2.25213595699570 -5.01148812491249 -0.66412986258626
 1  3.56427855015502 -4.33894317611761  2.01648665626563
 1  2.82848783548355 -3.15997161826183 -1.29661220222022
 1  3.97399201250125 -1.94685824512451 -1.28385085558556
 1  4.55793796779678 -3.83023675287529 -1.76318524442444
 1  5.06345638653865 -1.52712913691369  0.95455733923392
 1  5.56790531783178 -2.71277290969097  2.13352823312331
 1  6.92985051175117 -3.79284247634763  0.64140202420242
 1  6.42753291369137 -2.65842345134513 -0.75856645214521
 1  7.34381331263126 -0.64088741384138  0.40855810131013
 1  7.70487259015902 -1.88748533163316  1.69125351065107
 1  8.82986709600960 -1.83482175737574 -0.90053339143914
 1  8.98499301800180 -4.30432920432043 -0.25225901830183
 1  10.70162950375038 -3.41978618071807 -0.21226133963396
 1  9.63309237063706 -3.49976106760676  1.39142958565857
 1  9.77864701530153  0.27981370757076  0.27007237103710
 1  10.24338443594359 -0.86069260316032  1.54587412741274
 1  11.98731387268727 -1.77560759265927 -0.07127150035004
 1  11.22434852155216 -0.79574247914791 -1.20975230883088
 1  11.69268030153015  1.26895132433243  0.23860430523052
 1  12.31709653295330  0.39653084448445  1.30618889908991
 1  13.37521432213221  0.57403183548355 -1.55679791849185
 1  15.04449378767877 -0.84898311101110  0.67270295029503
 1  13.57561313231323 -1.54451346764676 -0.45215153665367
 1  15.30166115451545 -0.73346654485449 -1.17099399189919
 1  13.50626882108211  2.53605822492249 -0.38005979367937
 1  14.61087778807881  1.95146543574357  0.89802701660166
 1  16.32080373617362  1.37620623332333 -0.78467495819582
 1  15.28297388078808  2.21145505830583 -2.09577095679568
 1  15.56926833143314  4.30012539053905 -1.11400339843984
 1  16.36165893599360  3.45093173457346  0.39928982938294
 1  17.96637031843184  2.92523401460146 -1.28194727432743
 1  16.36677739813981  4.60242677157716 -3.20357271707171
 1  18.21435735923593  4.53692320562056 -3.41478608370837
 1  16.82387258745875  2.96639770977098 -3.55500353495350
 1  18.27159320652065  5.11281249874988 -0.12805114091409
 1  18.95802332463246  5.30471462366237 -1.64977189158916
 1  17.12076362726273  5.89991949504951 -1.17559162046205
 1 -4.99264456585659 -7.86612604570457 -0.03778731643164
 1 -6.46932136243624 -7.13310039663966  0.35759926742674
 1 -4.97955612421242 -6.73384496009601  1.28963341994199
 8 -7.93534112571257  6.83042954375438 -0.36578436243624
 1 -9.38519681678168  6.07182282718272 -1.48068375117512

