%nproc=4
%Mem=2GB
# td=(NStates=1) iop(3/107=0140000000,3/108=0140000000) iop(3/107=0140000000,3/108=0140000000) CAM-B3LYP/6-31G(d,p) 

TD

0 1
12 -6.69556212831283  0.63884302840284  0.00615823532353
 6 -4.59752685918592 -2.04772319411941  0.37262753975398
 6 -4.30168198359836  2.66933856695670  0.99953283488349
 6 -8.95396810151015  3.23224724882488 -0.23430293199320
 6 -9.18417651525153 -1.65019804940494 -0.63977403610361
 7 -4.67573264516452  0.35274467216722  0.58841787388739
 6 -4.09288655425543 -0.83117282408241  0.63972452785279
 6 -2.67856127472747 -0.74025578477848  1.25198726102610
 6 -2.52636260206021  0.89268941774177  1.46773893639364
 6 -3.92717898079808  1.31138122332233  1.15656043074307
 6 -2.24246053175318  1.05299709560956  2.83382794559456
 6 -1.68745749414941 -0.96753931733173  0.06595792209221
 6 -0.23371148944894 -1.26026773337334  0.35115418891889
 6  0.87067814701470 -1.48078531543154 -0.73112128592859
 8  0.62660272837284 -1.12955556805681 -1.76974796499650
 8  1.81264155075508 -2.31804210281028 -0.03074799729973
 7 -6.65741748394839  2.62855322532253  0.32440618851885
 6 -5.70193075397540  3.21749039223922  0.70796709290929
 6 -5.99722393759376  4.79786947174717  0.69455432403240
 6 -7.12783349674968  4.90692678317832  0.27699428272827
 6 -7.67991969586959  3.55458426682668  0.12337716911691
 6 -5.01698661896190  5.70449788028803  1.21082875087509
 6 -7.83750531183118  6.21512843294329 -0.13147362366237
 8 -7.44064798099810  7.15445706230623  0.29084694149415
 7 -8.68625217871787  0.77573843304330 -0.46694934403440
 6 -9.55889956235624  1.92925766106611 -0.48697975027503
 6 -10.89110574087409  1.72599247034703 -0.88303408460846
 6 -10.88450280778078  0.26531743614361 -0.90074092959296
 6 -9.56003766706671 -0.24064222742274 -0.67756983368337
 6 -12.07139391469147  2.68816500960096 -1.06745139593959
 6 -12.06922004250425 -0.51794535683568 -1.34920305400540
 6 -12.41897875997600 -0.97618978417842 -2.87928072277228
 7 -6.90814729762976 -1.36207876917692 -0.05530817531753
 6 -8.00385304690469 -2.14458445514551 -0.45299849784979
 6 -7.72819040414041 -3.68554587698770 -0.35807681778178
 6 -6.25487110831083 -3.67599676057606 -0.19681794239424
 6 -5.97392368106811 -2.13241205570557  0.14300048434844
 6 -8.48804732823282 -4.63789116691669 -0.75619843574357
 6 -5.04853105760576 -4.39530532863286 -0.02356433073307
 8 -4.69703145184518 -5.58352889118912 -0.24905439883988
 6 -3.87978170357036 -3.36404696389639  0.42991763896390
 6 -3.37784129502950 -3.76934310981098  1.78509822282228
 8 -4.03486872697270 -3.84935166996700  2.95276394619462
 8 -2.10063173807381 -3.71292759805981  1.84988492769277
 6 -1.39538806090609 -4.12307739783978  3.07030145534553
 6  3.09681157395740 -2.38882405930593 -1.12399364346435
 6  4.06736050345035 -1.38842584368437 -0.68278381068107
 6  4.96689744514451 -1.03940081148115 -1.63796999859986
 6  5.12326631043104 -1.35184831953195 -3.08594557675768
 6  6.04253807840784 -0.18126577947795 -1.10122668116812
 6  7.38566726072607 -0.88213399549955 -0.89143588088809
 6  8.55363792409241  0.19318495309531 -0.45502398289829
 6  9.86402949234924 -0.50369729002900 -0.07690599629963
 6  9.82815033133313 -0.90016883158316  1.34578894769477
 6  11.00163249324932  0.54427928212821 -0.09678484008401
 6  12.42981825232523 -0.06165485828583  0.17749606080608
 6  13.60041158375838  0.90741801650165 -0.00401750335034
 6  14.96414274947495  0.17333061116112  0.09978464056406
 6  15.11001598969897 -0.41353363386339  1.53924384838484
 6  16.06590621902190  1.41630653265327  0.10616382168217
 6  17.39058853695370  0.83702892729273 -0.19835670957096
 6  18.39806935433543  1.84632182338234 -0.36653680048005
 6  19.79404160526053  1.38388688348835 -0.43183326702670
 6  20.37829763106311  0.69735516581658 -1.64743053425343
 6  20.83654082298230  2.56127754575458  0.03637854195420
 1 -3.70546118441844  3.33161441244125  1.54751415311531
 1 -9.97116109860986  4.00954003910391 -0.46766039993999
 1 -10.17774026562656 -2.45301570087009 -0.64765759165917
 1 -2.46831934873487 -1.35912353015301  2.14737478577858
 1 -1.92174151275128  1.24287476367637  0.81679813321332
 1 -1.16284766846685  1.03268158255826  3.01576228732873
 1 -2.65678385228523  2.16202477887789  3.03693981178118
 1 -2.99036136863686  0.31906979227923  3.55827169626963
 1 -2.03880290059006 -1.31864313731373 -0.61888967576758
 1 -1.69772494149415  0.06121464856486 -0.53076286708671
 1  0.33609160746075 -0.39383081638164  0.94889075427543
 1 -0.56779049884989 -1.89230556435644  1.02895312741274
 1 -3.65152968336834  5.64872270017002  0.83296825452545
 1 -5.41343162376238  6.83078575447545  0.11957886398640
 1 -4.80670169836984  6.14564352535254  2.26917468976898
 1 -8.79314232833283  6.21099620882088 -0.49056543234323
 1 -12.07979753335334 -1.28384925242524 -0.72661708890889
 1 -12.80464667966797  0.04178057785779 -1.07991562796280
 1 -12.93990181328133 -1.61510362576258 -2.95023214031403
 1 -12.41233819761976  0.12090951245125 -3.54751692119212
 1 -11.35515233963396 -1.68089140614061 -3.16940354775478
 1 -9.37297648094810 -4.22714927052705 -1.44267649564957
 1 -7.65604081868187 -5.50326033863386 -1.28249790169017
 1 -9.35029230923092 -5.50030199139914  0.14203881338134
 1 -3.00375995739574 -3.37441116601660 -0.30399870667067
 1  3.58282989838984 -3.46715398919892 -0.80228594569457
 1  2.68514280308031 -2.49909582458246 -2.12997323262326
 1  4.13073040074008 -1.17379012741274  0.30180378197820
 1  4.26740979797980 -1.07720119261926 -3.66182629762976
 1  6.04892847124712 -0.89369804520452 -3.80832205610561
 1  5.66119994739474 -2.52685529982998 -2.83466765056506
 1  6.25493591549155  0.71238657605761 -1.72971558875888
 1  5.69643475287529  0.03575912371237 -0.06876113951395
 1  7.43447462636264 -1.69767796489649 -0.11278955735573
 1  7.80414581298130 -1.39292808310831 -1.52995247114711
 1  8.58598072947295  1.16142673747375 -1.19358214351435
 1  8.06758525662566  0.83966915511551  0.44847055545554
 1  10.03912635973597 -1.08395583928393 -0.93389054665467
 1  8.85674791909191 -1.54735355105511  1.45629399019902
 1  10.69578564796480 -1.44191807300730  1.31232312371237
 1  9.37077028862887 -0.14205542794279  1.93776508160816
 1  11.04335797359736  1.09577233713371 -1.12028920052005
 1  10.75076482308231  1.27141601720172  0.56560044034403
 1  12.48695623782378 -0.75517795729573  1.02179586288629
 1  12.15072722672267 -0.81460968156816 -0.44496749424942
 1  13.40362523252325  1.61950149514951 -0.97148605320532
 1  13.08686073087309  2.03444769606961  0.87110289968997
 1  15.03198462426243 -0.22362987898790 -0.72065025622562
 1  15.25251515141514  0.24725512101210  2.56245901890189
 1  14.28552582608261 -1.17693536543654  1.89144664276428
 1  16.23612064516452 -0.72887647074707  1.60750722842284
 1  15.76885802070207  2.20208020142014 -0.89137911261126
 1  16.29678371097110  2.34081361686169  0.58086640984098
 1  17.92319363446344  0.20273344394439  0.53250343704370
 1  17.47074459865987  0.49050721992199 -1.31001237863786
 1  18.08467347444745  2.47864441224122 -1.26238922722272
 1  18.08734873097310  2.50480438733873  0.43002967346735
 1  20.01934449564957  0.72333517971797  0.27840119091909
 1  20.33820213821382  1.55597064666467 -2.57800992619262
 1  21.30866515651565  0.16626482468247 -1.57694182758276
 1  19.77482020902090  0.11409369096910 -2.11239931463146
 1  20.70888766736674  2.77397697679768  1.32686343994399
 1  21.82276001630163  2.40982756545655 -0.23652636763676
 1  20.47191384428443  3.30586807400740 -0.66264106040604
 1 -0.36359198429843 -4.19750249964997  2.91421976997700
 1 -1.75478515951595 -5.24077135083508  3.29427006360636
 1 -1.96543055635563 -3.28193667076708  3.92234638783878
 8 -11.89327770207021  3.83375817501750 -0.84802661636164
 1 -13.15010552205221  2.37151839193919 -1.47136774177418

