%nproc=4
%Mem=2GB
# td=(NStates=1) iop(3/107=0140000000,3/108=0140000000) iop(3/107=0140000000,3/108=0140000000) CAM-B3LYP/6-31G(d,p) 

TD

0 1
12 -6.85299787188719  0.63482262636264  0.02443006250625
 6 -4.64994210071007 -2.02556097789779  0.45018529552955
 6 -4.41690350575057  2.76823845694569  1.05076795839584
 6 -8.95421812651265  3.21508553265326 -0.49898940064006
 6 -9.44726282388239 -1.66800983058306 -0.71377143584358
 7 -4.67753282518252  0.35033443114311  0.62153118521852
 6 -4.03789105470547 -0.82534224102410  0.80208076347635
 6 -2.65403882248225 -0.59722148134813  1.28473053535354
 6 -2.59120908670867  1.00903105190519  1.56619878237824
 6 -3.97356361926193  1.48414850005001  1.08252302700270
 6 -2.32464875057506  1.35419721562156  3.05708027082708
 6 -1.68147689608961 -0.77921048444844  0.03592491879188
 6 -0.23243136143614 -1.42340404700470  0.48239731323132
 6  0.84862594179418 -1.50482771967197 -0.48000617441744
 8  0.90846091419142 -0.82942555505551 -1.57246823702370
 8  2.03690397699770 -2.21522182078208 -0.07919284178418
 7 -6.69707144934493  2.56920729072907  0.29970371827183
 6 -5.68395895679568  3.32809145234523  0.81863816001600
 6 -5.94856907210721  4.77383706850685  0.71870673927393
 6 -7.07168788218822  4.99515560606061  0.14869145244524
 6 -7.68540024392439  3.62848165656566 -0.07434260286029
 6 -5.00852577287729  5.81512894339434  1.26651431943194
 6 -7.89341090239024  6.14488140824082 -0.01916239253925
 8 -7.59519343554355  7.31807342394239  0.50557841464146
 7 -8.85487904140414  0.71568242744274 -0.51299394849485
 6 -9.40220389278928  1.99589432473247 -0.66723777607761
 6 -10.97871450175018  1.67726759785979 -1.08461424262426
 6 -11.05538989648965  0.26132703710371 -1.12844369986999
 6 -9.75866753005301 -0.28948711191119 -0.75609768646865
 6 -11.85283205850585  2.63889008210821 -1.39522417321732
 6 -12.14386750725073 -0.40804436673667 -1.69098723242324
 6 -11.75328219031903 -0.77649981518152 -3.14873766846685
 7 -7.13556003890389 -1.36749931123112 -0.02812545704570
 6 -8.19532219381938 -2.25745574227423 -0.48267146514652
 6 -7.66488407350735 -3.62687000940094 -0.44295530563056
 6 -6.37118273947395 -3.73703286418642  0.06057779717972
 6 -6.02525881458146 -2.14704351885189  0.14858104240424
 6 -8.39176770027003 -4.73865124292429 -0.66799961586159
 6 -5.16855305980598 -4.54441023912391  0.24658268396840
 8 -5.16888863756376 -5.68707924622462  0.08412891949195
 6 -4.04593831923192 -3.44369492869287  0.59535418261826
 6 -3.54663817471747 -3.83105928142814  1.94384409740974
 8 -4.18128336843684 -4.04601133593359  2.91865053485349
 8 -2.07054872977298 -3.96328263356336  1.75557549674968
 6 -1.09693821592159 -4.41890698079808  2.96195062026203
 6  3.15699759255926 -2.12677785468547 -1.12673391749175
 6  4.11971573897390 -1.21329833093309 -0.68227375967597
 6  5.12566332173217 -0.92593946534653 -1.42430863246325
 6  5.26703068686869 -1.43459659435944 -2.93250023222322
 6  6.21096492109211  0.09674202130213 -1.02224878337834
 6  7.45169386338634 -0.75615139723972 -0.52630936823682
 6  8.66856941724172  0.25735136973697 -0.48370685118512
 6  9.86810990039004 -0.39827674797480 -0.09072737843784
 6  9.72526004230423 -1.50145896059606  1.32228659745975
 6  11.22998532853285  0.56006086028603  0.27574241264126
 6  12.53459873037304 -0.22616130893089  0.27043535473547
 6  13.62546408900890  0.89042631733173  0.32221511991199
 6  15.07085342054205  0.11041431953195  0.28113277537754
 6  15.30671565966597 -0.63504578507851  1.62673259725973
 6  16.07721735013502  1.38021292329233  0.08912211751175
 6  17.39637911601160  0.81561678607861 -0.28827570147015
 6  18.58389793719372  1.93210040124012 -0.30884103090309
 6  19.85426762786279  1.34307280208021 -0.77314739843984
 6  19.67901770307031  0.96437186748675 -2.23457924912491
 6  20.93234040294029  2.46182760076008 -0.65095019091909
 1 -3.73530416871687  3.66022727372737  1.37986738843884
 1 -9.81007498999900  4.24494357945794 -0.79453308720872
 1 -10.36897938953895 -2.59115951525152 -0.78091091699170
 1 -2.33685620242024 -0.96680429822982  2.14074412271227
 1 -1.85618495709571  1.40887136333633  0.86036248964897
 1 -1.45884726842684  1.01115943034303  3.38396910801080
 1 -2.33687186108611  2.12788136453645  3.18532465026503
 1 -2.85575790829083  1.01361924722472  3.61956782588259
 1 -1.93189220952095 -1.50442171517152 -0.66420420722072
 1 -1.51651682068207  0.15758428552855 -0.68490828162816
 1  0.08153615191519 -0.86147758105811  1.69813567876788
 1 -0.45445916571657 -2.46026236003600  1.09215944804480
 1 -4.12829736013601  6.17695552345234  0.18409336703670
 1 -5.66389667026703  6.78294096999700  1.91058796489649
 1 -4.45882691089109  5.03860282128213  2.31901967426743
 1 -8.77171018511851  6.05025013421342 -0.65992236803680
 1 -12.07894744834483 -1.40548141564156 -1.45128955615561
 1 -13.33042925792579 -0.19223282348235 -1.58371600800080
 1 -12.73123094619462 -1.45583769916992 -3.39142625972597
 1 -12.04022098589859  0.46580400190019 -3.65662783228323
 1 -10.78960578497850 -1.14402771977198 -3.24490109750975
 1 -8.63692287558756 -4.65666222182218 -1.86700892889289
 1 -7.69198441304130 -5.70471048364837 -0.88747839973997
 1 -9.38804608460846 -5.23112507370737 -0.43111850235023
 1 -3.11585116651665 -3.62980670557056 -0.12925123192319
 1  3.60115173057306 -2.99750702450245 -0.94768048514852
 1  2.90661495029503 -2.05494140914091 -2.24172440774077
 1  4.06730405810581 -0.95421817021702  0.57562116371637
 1  4.52181523852385 -0.71796526902690 -3.69998011301130
 1  6.44090766916692 -1.07551622702270 -3.21045226912691
 1  5.15246907430743 -2.33239585388539 -3.13342752655265
 1  6.69545996789679  0.73482882028203 -1.72442505970597
 1  5.66304141354135  0.58952450025003 -0.26481074447445
 1  7.22374355325533 -1.44376257335734  0.59835155675568
 1  7.77658305670567 -1.47768655895590 -1.26196567246725
 1  8.75570770217022  0.85103569836984 -1.58268105340534
 1  8.25818431653165  1.26110129832983  0.10080578897890
 1  10.31650409750975 -1.05984342804280 -1.05215237283728
 1  8.85267751205121 -2.25787460316032  1.37739610041004
 1  10.73083915331533 -2.06711059225923  1.83041493289329
 1  9.43973718531853 -0.81779300170017  2.35316662176218
 1  11.11724536233623  1.34832759265927 -0.60295746734673
 1  11.05295504210421  1.38719759535954  1.07795167546755
 1  12.68797633983398 -0.96102854235424  1.11021470477048
 1  12.36221837583758 -0.90566878747875 -0.70672366986699
 1  13.66642151215122  1.54336388138814 -0.69067797239724
 1  13.51910395519552  1.30056430773077  1.47318310771077
 1  15.20573199899990 -0.52941045704570 -0.68717690889089
 1  15.14168406830683 -0.21153075757576  2.67899067206721
 1  14.51064833833383 -1.15978365026503  1.66126362446245
 1  16.44495152825283 -1.42880646374638  1.61885836353635
 1  15.76243737863786  1.90509050245024 -0.51407138183818
 1  16.54193822642264  1.98506804230423  0.85448377157716
 1  17.71806312141214  0.07234040464046  0.08141832853285
 1  17.52983050725073  0.76590475967597 -1.25465684308431
 1  18.25997100420042  2.87508405620562 -0.77026001430143
 1  18.60427042314232  2.48729263616362  0.60941761226123
 1  19.99261182238224  0.62923576977698  0.13244659545955
 1  19.31387970597060  1.93638868846885 -2.75170729592959
 1  20.90007429742974  0.61504970317032 -2.73907804120412
 1  19.06206893389339  0.19357163876388 -2.37702577727773
 1  20.47938471707171  3.07018659775978  0.18551930553055
 1  22.21648938923893  1.64289087178718 -0.57736045104511
 1  20.84258091099110  3.37310479767977 -1.46560135643564
 1 -0.08517414251425 -4.78553130253025  2.62277062506251
 1 -1.53039272027203 -5.22630990469047  3.46005664226423
 1 -1.08242225552555 -3.28893737083708  3.19343349654965
 8 -11.91533990829083  3.78035283448345 -1.06606842054205
 1 -12.71552206370637  1.93276451655165 -1.86062666766677

