%nproc=4
%Mem=2GB
# td=(NStates=1) iop(3/107=0140000000,3/108=0140000000) iop(3/107=0140000000,3/108=0140000000) CAM-B3LYP/6-31G(d,p) 

TD

0 1
12 -6.70879345144514  0.54086323042304  0.22967058655866
 6 -4.53706081258126 -1.94433285508551  0.48972924992499
 6 -4.36832864826483  2.76126775987599  0.98306118771877
 6 -9.11072377707771  3.09517354145415 -0.16722622432243
 6 -9.18351644924492 -1.81421445104510 -0.67281734043404
 7 -4.72901797369737  0.44496389408941  0.57981701380138
 6 -3.94513177877788 -0.78938864566457  0.74796535193519
 6 -2.53370678927893 -0.58074983418342  1.10040210251025
 6 -2.51715168096810  0.95591574037404  1.30835299779978
 6 -4.01935819871987  1.41903198839884  0.93875865056506
 6 -1.93655994169417  1.16327812371237  2.81702626542654
 6 -1.58409715811581 -1.04760732413241 -0.08039671337134
 6 -0.14672279057906 -1.09569127572757  0.45823489698970
 6  0.76547762696270 -1.24432166906691 -0.80415858965897
 8  0.59421949004900 -0.85406801930193 -1.95840683088309
 8  1.93901418801880 -1.86874717331733 -0.25916083858386
 7 -6.76361810401040  2.61139150915092  0.36019976787679
 6 -5.70708126902690  3.21171981518152  0.74954125032503
 6 -6.01459567476748  4.68889857465746  0.69339420802080
 6 -7.30368108150815  4.84033012351235  0.36970355365537
 6 -7.86089779367937  3.54998380678068  0.22310714211421
 6 -5.03245816611661  5.67539496999700  0.97643531153115
 6 -7.95607716901690  6.03680060016002  0.02242176587659
 8 -7.51602551875188  7.26841845844584  0.27636549334934
 7 -8.78356190969097  0.70180103930393 -0.21106375547555
 6 -9.51143481588159  1.79396413171317 -0.30341139343934
 6 -10.93900053035304  1.46669654075408 -0.68015379657966
 6 -10.98137249474947  0.18472937733773 -0.88731958745875
 6 -9.63093475677568 -0.39144730793079 -0.63797587428743
 6 -11.93670044534453  2.56104229732973 -0.90651530233023
 6 -12.32863598409841 -0.62021558385839 -1.04904303800380
 6 -12.42897976007601 -0.76627879307931 -2.59341213591359
 7 -6.88428491139114 -1.41270383168317 -0.13079572407241
 6 -7.94073673527353 -2.16557655435544 -0.47438063606361
 6 -7.53830141524152 -3.57682500490049 -0.43938494859486
 6 -6.29821544274427 -3.61079023992399 -0.25514377497750
 6 -5.86472276097610 -2.17675649014902 -0.01171498719872
 6 -8.34017254075408 -4.85629300710071 -0.80021283718372
 6 -5.04563076757676 -4.52335813391339 -0.10904287858786
 8 -4.82283403210321 -5.71930246854685 -0.35129462286229
 6 -3.86637036243624 -3.40679123832383  0.47149179637964
 6 -3.28338184908491 -3.75108128362836  1.85771548454845
 8 -3.69520476057606 -4.08123485828583  3.01069973977398
 8 -2.01950362526253 -3.70083638893889  1.54031397059706
 6 -1.06468499059906 -4.00861595169517  2.74451887708771
 6  3.01150304310431 -2.06004118101810 -1.36942818691869
 6  4.02055582298230 -0.97275427652765 -0.86904243654365
 6  5.11386214161416 -0.80588746014601 -1.74459066066607
 6  5.27137112091209 -1.78061119581958 -2.98311529372937
 6  6.11588541314131  0.39999234633463 -1.57276383488349
 6  7.33100179417942 -0.24018980108011 -0.80650738803880
 6  8.55026758705871  0.73972960756076 -0.82295077557756
 6  9.75020811021102 -0.14566148644864 -0.07570587628763
 6  9.26576409270927 -0.54177299199920  1.29082345114511
 6  11.01035336533653  0.68693354755476  0.04045888428843
 6  12.27494276477648  0.02758406560656  0.49156746794679
 6  13.57514905750575  0.80854812951295  0.30733363176318
 6  14.88989532473247  0.20841411951195  0.54091875397540
 6  15.02287727582758 -0.21170345084508  2.25189511351135
 6  15.91872150055006  1.25716061806181  0.15167837313731
 6  17.43509298739874  0.46716194059406  0.10299342544254
 6  18.35431497889789  1.47556474767477 -0.35352549934994
 6  19.87049925102510  0.84116261106111 -0.47712779647965
 6  19.95369517081708  0.08821425172517 -1.83148894009401
 6  21.08695586448645  1.78676009400940 -0.44360945684568
 1 -3.75664630293029  3.45650690169017  1.54819422112211
 1 -9.67483146564656  3.90601968706871 -0.47103073697370
 1 -9.86012850445044 -2.85978637793779 -0.88944177007701
 1 -2.55536805360536 -0.93836145394539  1.97106715501550
 1 -1.77505684428443  1.13635411161116  0.66237269066907
 1 -0.80684206790679  1.50452876727673  2.68836954805481
 1 -2.62409058295830  2.40177875427543  2.94577069486949
 1 -2.15678801130113  0.39856774207421  3.33704957405741
 1 -1.86965598589859 -2.63406467946795 -0.12413019981998
 1 -1.60480564956496 -0.50483195609561 -1.16256604740474
 1  0.18295629392939 -0.39227066036604  1.27005287048705
 1  0.06543282348235 -2.06038237203720  1.12559279137914
 1 -4.37653218361836  5.86107393529353  0.08717367506751
 1 -5.40037031763176  6.42682535843584  1.64478138423842
 1 -4.39774080228023  5.30062902390239  2.02534030633063
 1 -9.03240625472547  5.97941305050505 -0.34750112591259
 1 -12.48355790939094 -1.57383825132513 -0.49506393359336
 1 -13.11700791579158  0.08408480828083 -0.59788742514251
 1 -13.04055187828783 -1.31335345074508 -2.97065418251825
 1 -12.42264922872287  0.28963638513851 -3.14956712621262
 1 -11.45600242464246 -1.27667098409841 -3.21203781118112
 1 -9.31141032433243 -4.46659321492149 -1.69219144714471
 1 -7.80852606720672 -5.70427043964396 -1.07410706260626
 1 -9.05951323132313 -5.19226118731873  0.00624523402340
 1 -3.18092767416742 -3.41362508740874 -0.44500280708071
 1  3.23551516691669 -3.22602987678768 -1.66579229632963
 1  2.49032332113211 -1.88372428742874 -2.54345458075808
 1  4.00601792949295 -0.34233698209821 -0.11525792419242
 1  4.85810886788679 -1.32169564206421 -4.05649576457646
 1  6.34863844224423 -1.76223489888989 -3.70918214211421
 1  4.83701752915292 -3.03112572687269 -2.85216940074007
 1  6.42618304020402  0.82292763016302 -2.47694031123112
 1  5.39243435283528  1.17316286408641 -0.69014327772777
 1  7.21066224512451 -0.50617881498150  0.22443416501650
 1  7.65905130353035 -1.22357114741474 -1.35830530643064
 1  9.01928405980598  0.79707030183018 -2.05221800710071
 1  8.55719421752175  1.85361054925492 -0.17380167176718
 1  10.17893034013401 -0.91517896159616 -0.67730488808881
 1  8.35073731803180 -1.18553736943694  1.08583694449445
 1  10.01623769316932 -1.13088696989699  1.76471836323632
 1  9.14784799639964  0.21270004760476  1.53570487558756
 1  11.22541617941794  1.29524228412841 -0.91477864946495
 1  11.01379112571257  1.78322719831983  0.89771365166517
 1  12.09041658385839 -0.54294673417342  1.53410709400940
 1  12.50717287128713 -1.18056627722772  0.10235723822382
 1  13.50631550155016  1.51661120612061 -0.49346825142514
 1  13.48471051585158  1.50725497679768  0.86458224762476
 1  14.93599502530253 -0.75758327432743 -0.23035122632263
 1  14.83136303620362  0.88801919741974  2.82577535053505
 1  13.99735700920092 -0.81275894779478  2.58655615371537
 1  16.19616664976498 -0.50878446154615  2.49816629432943
 1  15.77023815871587  1.69038903230323 -0.87019699439944
 1  15.82765679827983  2.23462299779978  0.74274259745975
 1  17.60371168626862  0.04810798139814  1.47823801050105
 1  17.49510703490349 -0.35236706750675 -0.83950532793279
 1  18.25591059815982  2.05697224502450 -1.59160214851485
 1  18.75994599069907  2.57702160906091  0.47209387988799
 1  19.64421698289829 -0.03949110291029  0.20061341214121
 1  20.06713503150315  0.88994404400440 -2.55469759495950
 1  20.74240853085308 -0.40912271407141 -1.42526666006601
 1  18.92441516851685 -0.71896961536154 -2.22791086578658
 1  21.37831461006100  2.31352093119312  0.65493624722472
 1  22.14419215951595  1.62124870757076 -0.92350506550655
 1  20.89005565846584  2.94172165936594 -0.80377517381738
 1 -0.16787241234123 -4.76447919731973  2.04548289628963
 1 -1.66371605260526 -4.86326360006001  3.47582821942194
 1 -0.45358937223722 -2.60397887498750  3.12848700190019
 8 -11.75184355865587  3.71567636683668 -0.89011082478248
 1 -12.98731924342434  1.77247848794879 -1.29922052705270

