%nproc=4
%Mem=4GB
# td=(NStates=1) iop(3/107=0140000000,3/108=0140000000) iop(3/107=0140000000,3/108=0140000000) CAM-B3LYP/6-31G(d,p) 

TD

0 1
12 -5.67473898049805  1.16393126742674  0.27352595779578
 6 -5.04152453965396 -2.14291275457546 -0.39049591639164
 6 -3.34885367446745  1.18326861166117  2.69305467876788
 6 -6.17310610631063  4.55632889708971  0.64148435723572
 6 -7.97418318541854  1.16258710941094 -2.39491716521652
 7 -4.32635688898890 -0.28381657345735  0.94950628942894
 6 -4.15051857935794 -1.61419512111211  0.51905425502550
 6 -3.21456458095810 -2.32696599939994  1.52680704440444
 6 -2.99147231823182 -1.36511940284028  2.66031258735874
 6 -3.60570799819982 -0.05385801350135  2.18539312451245
 6 -3.63637667706771 -1.70503394479448  3.94867756715672
 6 -2.01750694389439 -2.78325573487349  0.70415572107211
 6 -1.01907355085509 -3.54614219481948  1.51484507250725
 6  0.15237033753375 -3.99482332303230  0.76815501020102
 8  0.35238530283028 -3.56247356095610 -0.32686892109211
 8  0.99329617531753 -4.86299591689169  1.30079468676868
 7 -4.96300711701170  2.59003838073807  1.52915314701470
 6 -4.08534062386239  2.41445886758676  2.51518212151215
 6 -3.74437394109411  3.61486998919892  3.25954651085108
 6 -4.49273982668267  4.58009953825383  2.59607887918792
 6 -5.27211331553155  3.98294638983898  1.51217731003100
 6 -2.77778314141414  3.70397777357736  4.40262445184518
 6 -4.60951748234823  5.99286670717072  2.92614211901190
 8 -4.17176722472247  6.56528441644164  3.96745064496450
 7 -6.86371017091709  2.61664155995600 -0.69067072337234
 6 -6.83915663046305  3.94396401360136 -0.43190487918792
 6 -7.81523671007101  4.60497722252225 -1.27359146864686
 6 -8.27663711701170  3.71726865676568 -2.07174611901190
 6 -7.67700659115912  2.50775678447845 -1.73229917641764
 6 -8.16522951385138  6.03044295369537 -1.31995150395039
 6 -9.24888925222522  3.97666806500650 -3.17339197199720
 6 -8.85200665436544  4.17480562676268 -4.56621302530253
 7 -6.34862328132813 -0.07348236593659 -1.12276736873687
 6 -7.34164369396940 -0.02987905650565 -2.06501071177118
 6 -7.59895740294029 -1.28158986258626 -2.60739326192619
 6 -6.79418896769677 -2.19539911171117 -1.95263142884288
 6 -6.02701111651165 -1.40551411651165 -1.09445557595760
 6 -8.66157161496150 -1.60452057805781 -3.67532442864286
 6 -6.18047171427143 -3.43988957285729 -2.04568812391239
 8 -6.41794619011901 -4.50587828622862 -2.65318158325833
 6 -4.98928749084908 -3.58418647124712 -0.97163948374838
 6 -5.26724420182018 -4.67134257535754  0.01617528932893
 8 -5.59871564316432 -4.50396940504050  1.23567993139314
 8 -4.99780947914792 -5.89875107150715 -0.46581972657266
 6 -5.32455001920192 -6.95317717101710  0.44682651245125
 6  2.32093306650665 -5.15420654085409  0.66762071647165
 6  3.45575011001100 -4.10725088598860  0.98672657245725
 6  4.04896428662866 -3.22776564666467  0.21726536153615
 6  3.82754709360936 -3.18332327362736 -1.25035453995400
 6  5.09524595039504 -2.38611365896590  0.63587738653865
 6  6.45897076837684 -2.69237216241624 -0.00298883148315
 6  7.57327265086509 -1.89256861236124  0.61884757525753
 6  9.04415523682368 -2.03331816541654 -0.16758454095410
 6  9.65624200590059 -3.42284292469247  0.24345088738874
 6  9.86528710781078 -0.76652689008901  0.20962347784778
 6  11.27766506890689 -0.85754536143614 -0.28214698089809
 6  12.25053274187419  0.32894752225223  0.19426627422742
 6  13.60259271507151  0.45657052695270 -0.47043180638064
 6  14.39107740674067 -0.69594899749975 -0.37043119401940
 6  14.23108904850485  1.80804697629763 -0.30075933073307
 6  15.50659484988499  2.19135716391639 -1.00307530253025
 6  16.05214779917992  3.52691744454445 -0.65795640884088
 6  17.29796504560456  3.94571241284128 -1.43178711391139
 6  17.06117870757076  4.12128702040204 -2.90050227442744
 6  17.84379378547855  5.21451671697170 -0.79681914081408
 1 -2.77507323012301  1.20981525692569  3.60628109650965
 1 -6.66713469226923  5.49239461986199  0.85891488318832
 1 -8.49074948214821  1.10691099399940 -3.32241772057206
 1 -3.83223428822882 -3.11149646504650  1.81231929272927
 1 -2.05715283918392 -1.10185784738474  2.89903117921792
 1 -3.11397117621762 -2.50343350455045  4.57051059505951
 1 -3.82568336103610 -0.78481838623862  4.70271230103010
 1 -4.60500301200120 -2.06726580748075  3.93108705920592
 1 -2.30197551125113 -3.31253077037704 -0.35077570137014
 1 -1.62855068746875 -1.82790190649065  0.48842696429643
 1 -0.55013044654465 -3.15171646724672  2.42365658435844
 1 -1.50999572117212 -4.54692182338234  1.77659945794579
 1 -1.91476158995900  3.59548907330733  3.97183309300930
 1 -2.84402539263926  4.76080328632863  4.59242550025002
 1 -2.92099509450945  2.99943094059406  5.31583658965897
 1 -5.18165122902290  6.69783397779778  2.50249557095710
 1 -9.92136126962696  2.97087774487449 -3.37245049674967
 1 -9.99174997289729  4.70352419651965 -2.93223351405141
 1 -9.56273607340734  4.04884329832983 -5.41611681398140
 1 -8.16347585698570  5.11648139353935 -4.78001795679568
 1 -8.04511436043604  3.35880523932393 -4.92807273207321
 1 -8.51924951455146 -0.93731427432743 -4.49218021632163
 1 -8.44280526352635 -2.67177058215822 -3.92212484948495
 1 -9.87626770627063 -1.49298612201220 -3.46605351205120
 1 -4.01449880728073 -3.82546737333733 -1.45681896879688
 1  2.52278341134113 -6.02437038003800  1.10120607750775
 1  2.30603134653465 -5.26593356945695 -0.40465391499150
 1  3.62225434773477 -4.17518680048005  1.97583259085909
 1  2.82658764546455 -3.75718133923392 -1.41490403140314
 1  3.79422403570357 -2.06759031833183 -1.50216268676868
 1  4.61538371237124 -3.65662939213921 -1.83235216111611
 1  4.72731277217722 -1.51827825182518  0.56402828632863
 1  5.02210073737374 -2.43584521692169  1.67183206350635
 1  6.78060558725873 -3.63438663076308  0.00351823582358
 1  6.43190335073507 -2.63827143614362 -1.19407000250025
 1  7.11663059435944 -0.99926325142514  0.43929117461746
 1  7.58996109900990 -2.04754133723372  1.74632901820182
 1  8.87829193849385 -1.94254252945295 -1.22812615071507
 1  9.09202372107211 -4.24566333773377 -0.20871466386639
 1  10.74345368616862 -3.44042824492449 -0.12526263976398
 1  9.88218728012801 -3.29352044354435  1.33685412811281
 1  9.30471962256226 -0.00013428722872 -0.22808744494449
 1  9.99315941344134 -0.68435496939694  1.25359489948995
 1  11.71095623692369 -1.86533656555655 -0.13987836103610
 1  11.23262934963496 -0.68979188408841 -1.43964529812981
 1  11.79616064956496  1.32813724292429 -0.21836139133913
 1  12.19545436873687  0.46977816921692  1.39989827002700
 1  13.28682548324832  0.39914434673467 -1.44259649834984
 1  14.61456079437944 -0.96337455015502  0.85563124312431
 1  14.05210078107811 -1.64081309760976 -0.55964228572857
 1  15.34810579897990 -0.56552975117512 -0.81532842534253
 1  13.48236643084308  2.73265788488849 -0.58942072977298
 1  14.54925162546255  1.85328561776178  0.77389460336034
 1  16.28732038783878  1.44365297799780 -0.65194168486849
 1  15.20370595399540  2.08458237103710 -2.02052343204320
 1  15.17264866946695  4.14414979297930 -1.02339433753375
 1  16.14803757385739  3.59441608300830  0.50784068446845
 1  18.25607928932893  3.18291978317832 -1.19360844044404
 1  16.27794851525152  4.68447497639764 -3.12105446524652
 1  18.10298622212221  4.40546005930593 -3.25811041614161
 1  16.83083328352835  3.12552362236224 -3.33335136973697
 1  18.19752579977997  5.05295651315132  0.25678734293429
 1  18.68617613991399  5.51058521072107 -1.34344125852585
 1  17.19806135703570  6.15182468556856 -0.90380444174417
 1 -4.90828613001300 -7.78146757985799 -0.06849038673867
 1 -6.47591202150215 -6.90097718431843  0.51476498399840
 1 -4.80684885348535 -6.87726930253025  1.38032248884888
 8 -7.66095368696870  6.88423492429243 -0.59549733373337
 1 -8.70193849094909  6.28566421132113 -2.23995967876788

