%nproc=4
%Mem=2GB
# td=(NStates=1) iop(3/107=0140000000,3/108=0140000000) iop(3/107=0140000000,3/108=0140000000) CAM-B3LYP/6-31G(d,p) 

TD

0 1
12 -6.81124369646965  0.61245038913891  0.19551717121712
 6 -4.58457556405641 -2.04042246404641  0.55956623362336
 6 -4.46551836723672  2.79426105920592  1.18899178077808
 6 -8.85561826652665  3.20580460456046 -0.24716421812181
 6 -9.37003510111011 -1.59719274887489 -0.85264532323232
 7 -4.79344441634163  0.32471186888689  0.62180121222122
 6 -4.04845211081108 -0.86257596439644  0.79817037243724
 6 -2.62592601120112 -0.53986574577458  1.12608467076708
 6 -2.57690765656566  0.92500264906491  1.42309447194719
 6 -4.09973623652365  1.44915500070007  1.26019079377938
 6 -2.23409969566957  1.06071786768677  2.88273283608361
 6 -1.69502825122512 -1.13714627802780  0.14892621892189
 6 -0.26018413671367 -1.21786349294930  0.53144221772177
 6  0.70530160936094 -1.42605984288429 -0.52241041484148
 8  0.54805487358736 -1.05388800130013 -1.62619360956096
 8  1.95455574217422 -2.11930222882288 -0.10192511501150
 7 -6.75076681888189  2.52355272527253  0.46617036493649
 6 -5.69183974487449  3.19092773597360  0.78340463666367
 6 -5.85027924312431  4.80498018281828  0.65256012461246
 6 -7.23037375077508  4.77321341184118  0.34634121742174
 6 -7.71615331923192  3.49059786818682  0.04827965936594
 6 -4.82471739203920  5.90850828132813  0.86047371537154
 6 -7.86523808510851  6.19135605570557  0.01992151585159
 8 -7.62402631883188  7.24057567416742  0.25344320112011
 7 -8.75018857235724  0.78700956015602 -0.43238588768877
 6 -9.43346701910191  1.94033876917692 -0.61862291459146
 6 -10.72211884218422  1.70687055815582 -0.98054383558356
 6 -10.88403276077608  0.24524542894289 -0.94536539203920
 6 -9.63214487778778 -0.29994815801580 -0.72551462816282
 6 -11.81825860116012  2.62521871497150 -1.25227987878788
 6 -12.07587070757076 -0.51029459175918 -1.22416054975498
 6 -12.45405226732673 -0.75623778897890 -2.77563035773577
 7 -6.98502498539854 -1.37907046834683 -0.08091073557356
 6 -8.12289495109511 -2.25332532923292 -0.48608180618062
 6 -7.53525111021102 -3.53613093549355 -0.71489249934993
 6 -6.29374499569957 -3.60651981288129 -0.25227348794879
 6 -6.08520480918092 -2.21512032653265  0.19423560786079
 6 -8.40896942044204 -4.74573195099510 -0.86741955785579
 6 -5.02773897839784 -4.40107590569057 -0.07272924722472
 8 -4.73053480218022 -5.53762430073007 -0.46171566496650
 6 -3.88951267666767 -3.47972853205321  0.42517716491649
 6 -3.40050356125613 -3.86134230973097  1.76470618361836
 8 -3.96437167726773 -4.25415215001500  2.85718438823882
 8 -2.19278095299530 -3.60031633693369  1.81156109530953
 6 -1.61433995609561 -4.00139522962296  2.97195162036204
 6  2.97464935773577 -2.16773195009501 -1.14964620872087
 6  4.09967373477348 -1.13712071317132 -0.62509804210421
 6  5.09054981038104 -0.93827069846985 -1.54987118871887
 6  5.22694667846785 -1.47622075677568 -2.90988797099710
 6  6.19578340294029  0.08468081518152 -0.93697025552555
 6  7.35106380038004 -0.76282206430643 -0.50403714101410
 6  8.61612417271727  0.26337197179718 -0.36178465896590
 6  9.94672776217622 -0.65924284458446  0.06583827812781
 6  9.77747526382638 -1.35525434013401  1.51832620142014
 6  11.10580291029103  0.47350220442044  0.21669650805080
 6  12.49492476297630 -0.26622531533153  0.30537884908491
 6  13.55230677327733  0.80883815851585  0.22261515991599
 6  14.88024435963596  0.16296957505751  0.21320598269827
 6  15.26478146624662 -0.43616589708971  1.61114103810381
 6  16.06034566296630  1.24943984598460  0.04835804110411
 6  17.35694517261726  0.82211743614361 -0.25855272917292
 6  18.57013656105611  1.94033122432243 -0.40663080988099
 6  20.00719292039204  1.53533202800280 -0.68056814051405
 6  20.05155495679568  0.82176760706071 -1.81295708690869
 6  20.87516468536854  2.74087550555056 -0.89619471537154
 1 -3.66252689098910  3.16399765076508  1.57262666436644
 1 -9.57216119861986  4.00626971207121 -0.28058169206921
 1 -9.91166365796580 -2.36241664096410 -1.13194602050205
 1 -2.61723424022402 -1.05337295509551  2.18577862616262
 1 -1.83176251485149  1.52548302450245  0.79039549294930
 1 -1.30578196189619  0.43938225262526  2.72499321042104
 1 -2.12755092899290  1.96387496389639  3.26926304410441
 1 -3.12007433993399  0.60972885818582  3.62899876897690
 1 -1.99091811211121 -2.34546581958196 -0.43645143194319
 1 -1.77097226622662 -0.50161163406341 -0.81089087988799
 1 -0.03611561326133 -0.07042847614761  0.86537240244024
 1  0.17125340554055 -1.93567990179018  1.32595282738274
 1 -3.98450298069807  6.15951377927793 -0.06552159445945
 1 -5.33374365496550  6.90207288318832  0.90376728282828
 1 -4.14092512071207  5.25512447344735  1.60775854815482
 1 -8.77646066016602  6.16224133333333 -0.26326270207021
 1 -11.97997755135514 -1.41633250075008 -0.64074850205020
 1 -13.08196441144114 -0.03303690389039 -0.87940557695770
 1 -13.36841466456646 -1.75409752515252 -2.78995611271127
 1 -12.64078104190419  0.02779020052005 -3.27732990249025
 1 -11.90472729712971 -1.60314363136314 -3.29682629002900
 1 -8.70274945824582 -4.96178273387339 -2.03807603560356
 1 -7.80620583518352 -5.73775378797880 -0.89531918381838
 1 -9.21477875787579 -4.74970693189319 -0.52488787928793
 1 -3.07435701710171 -3.33444716961696 -0.10790909770977
 1  3.53470508590859 -3.22194946874687 -0.87484320142014
 1  2.63264755355536 -2.21060697569757 -2.22730296559656
 1  3.85548287598760 -0.61981472987299  0.36554015561556
 1  4.42148520552055 -0.91755522802280 -3.91248136313631
 1  6.26165974437444 -1.31623029842984 -3.27388861276128
 1  4.97341116851685 -2.49523213751375 -3.13319750355035
 1  6.53671409330933  0.62262760016002 -1.83738635583558
 1  5.80489559895990  0.66238178597860 -0.00398466186619
 1  6.83734491339134 -1.26388458555856  0.56617833943394
 1  7.64306970537054 -1.92856164646465 -1.31512098799880
 1  8.94807693909391  0.97226782158216 -1.29431221652165
 1  8.13444194229423  0.67828301650165  0.73449915831583
 1  10.32504495159516 -1.32138958265827 -0.56698385598560
 1  8.91827407170717 -2.25810462616262  1.44363272407241
 1  10.58775484488449 -2.02871675287529  1.73276516791679
 1  9.78072128372837 -0.61369259165917  2.16091739683968
 1  11.13180681848185  1.47052981288129 -0.53541071267127
 1  10.93879362596260  0.99970884648465  1.22232611291129
 1  12.39768731093109 -1.35407784728473  1.40264394769477
 1  12.51241339533953 -0.84700292089209 -0.70133313081308
 1  13.58728359835984  1.43168271327133 -0.75794469906991
 1  13.17034907970797  1.63027727902790  1.17133292269227
 1  14.98785021082108 -0.66998451445145 -0.58760695189519
 1  15.43996389628963  0.35903629912991  2.61287406040604
 1  14.59701697519752 -1.35200287218722  1.98701619971997
 1  16.16285331843184 -0.60191377447745  1.57113359105911
 1  15.51343247814781  1.82550254365437 -1.08418839353935
 1  16.00547458005801  2.11665120062006  0.92251057425743
 1  17.98956027112711  0.30355352595259  0.17728791549155
 1  17.46996452065206  0.40628879807981 -1.30634201160116
 1  18.51260626772677  2.54159070687069 -1.25641863016302
 1  18.56691668776878  2.29752365926593  0.45424209470947
 1  20.66637919911992  1.04987783398340 -0.09979662886289
 1  19.63074139213921  1.25332038163816 -2.07376950215022
 1  20.75907019701970  0.56287448564856 -2.01345547894789
 1  19.53859658665867 -0.01027874627463 -2.25262333703370
 1  21.16513329192919  3.41613119221922  0.00499125272527
 1  22.03597133743375  2.37024360706071 -0.75647836283628
 1  20.47145379827982  3.30844833203320 -1.72676747304731
 1 -0.70735636073607 -3.84704745414541  2.47201554955495
 1 -2.04478415941594 -5.03884115781578  3.39846048264827
 1 -1.65296931023102 -3.56236471357136  3.68991314451445
 8 -11.67251562586259  3.76280107930793 -1.10884269796980
 1 -12.57145765726573  2.31354259435944 -1.34804540954095

