%nproc=4
%Mem=4GB
# td=(NStates=1) iop(3/107=0140000000,3/108=0140000000) iop(3/107=0140000000,3/108=0140000000) CAM-B3LYP/6-31G(d,p) 

TD

0 1
12 -5.60949245584558  1.25846072037204  0.06174477967797
 6 -4.98715910311031 -2.09409787308731 -0.51691855865587
 6 -3.38484727382738  1.10084036883688  2.78130350365037
 6 -6.16930572627263  4.49821308550855  0.73766397519752
 6 -7.87205297239724  1.26900775147515 -2.50979865336534
 7 -4.50225447874787 -0.31013920572057  1.14981632043204
 6 -4.27882140964096 -1.54241794339434  0.63422577217722
 6 -3.20056318081808 -2.24952825562556  1.40562492619262
 6 -2.84297746874687 -1.37527041794179  2.55500205630563
 6 -3.53765119251925 -0.09377200490049  2.17255184038404
 6 -3.43681672107211 -1.83989743114311  3.98285098449845
 6 -1.89796498969897 -2.64080148944895  0.66568187368737
 6 -1.04290593409341 -3.65265284588459  1.40915450345034
 6  0.27176227672767 -3.90402424312431  0.64361255595560
 8  0.47882794709471 -3.52589990359036 -0.42939917411741
 8  1.07494434013401 -4.78204782208221  1.27775238253825
 7 -4.93022383868387  2.52806218311831  1.60305053675368
 6 -3.93368545834583  2.42313973567357  2.59223982728273
 6 -3.68579808350835  3.60938944114411  3.19180973717372
 6 -4.53371392409241  4.54492602090209  2.59950922222222
 6 -5.22776888108811  3.91083917911791  1.51617771007101
 6 -2.81835719881988  3.78252562836284  4.40600478987899
 6 -4.65465199579958  6.02988040854085  2.98690819561956
 8 -4.08086813481348  6.43403129112911  3.93850775067507
 7 -6.79568336823682  2.66469636543654 -0.79237089338934
 6 -6.99598231303130  3.99031864906491 -0.37810949964996
 6 -7.93914910131013  4.59938666346635 -1.15551966146615
 6 -8.37027648094809  3.60392732263226 -2.06123506790679
 6 -7.68787767826783  2.41920792959296 -1.79820576707671
 6 -8.33643663456346  5.98455836523652 -1.13450295909591
 6 -9.36410077337734  3.84665506370637 -3.20254488728873
 6 -8.62769422312231  4.06454460066007 -4.48213461746175
 7 -6.34760317931793 -0.13081809950995 -1.07964305630563
 6 -7.29437896749675 -0.02331840044004 -2.18306251695170
 6 -7.45445295249525 -1.32675437903790 -2.81642416501650
 6 -6.72400194899490 -2.23519309110911 -2.13445961166117
 6 -6.05067348274827 -1.38024158925893 -1.12043817421742
 6 -8.42701815961596 -1.54777490349035 -4.00715761196120
 6 -6.18226189328933 -3.57196278017802 -2.01188474357436
 8 -6.43097749324933 -4.46763446184618 -2.76790305540554
 6 -5.09652821492149 -3.50082813541354 -0.95276759655966
 6 -5.38319579697970 -4.59599504060406  0.15103877567757
 8 -5.80588636023602 -4.31240024812481  1.25562192559256
 8 -5.20557025522552 -5.84597579397940 -0.30812395699570
 6 -5.42176974117412 -6.83185503880388  0.65911774157416
 6  2.30026099929993 -5.05214633483348  0.74365832023202
 6  3.37404193919392 -4.10590075097510  1.09044694449445
 6  4.07576696689669 -3.24542741284128  0.33771740674067
 6  3.72997733663366 -3.11185612691269 -1.14438394289429
 6  5.22899932573257 -2.41290633823382  0.78866266506651
 6  6.48213308460846 -2.76637956315632  0.03817528492849
 6  7.66401172477248 -1.95133448894890  0.62384807530753
 6  9.07371819311931 -2.01624645824582 -0.03045082758276
 6  9.74717109880988 -3.39763040344034  0.31381792409241
 6  10.01204178327833 -0.93289352675268  0.45069758525853
 6  11.32395969836984 -0.80028963586359 -0.35084385058506
 6  12.17156484508451  0.27610223772377  0.17077392499250
 6  13.51801425722572  0.53183805370537 -0.55810057325733
 6  14.35856415541554 -0.69548895149515 -0.31834598549855
 6  14.14812075167517  1.78968514011401 -0.22277153195320
 6  15.36996118651865  2.19435746394639 -1.12834782978298
 6  16.06040862526253  3.47690244304430 -0.72241285448545
 6  17.20720596969697  3.91045888748875 -1.46830076527653
 6  16.90395298499850  4.17060195189519 -2.92761498569857
 6  17.85810521662166  5.13952921822182 -0.94973443234323
 1 -2.72926864966497  1.17112138753875  3.58383885228523
 1 -6.45882386118612  5.56449182958296  0.80233922562256
 1 -8.55374578177818  1.58956925982598 -3.35851132993299
 1 -3.64721578637864 -3.09347466286629  1.86900496129613
 1 -1.74200132403240 -1.28187584918492  2.49379065516552
 1 -3.14897467656766 -2.79641280248025  4.37351089508951
 1 -3.18888968166817 -0.90639054345435  4.46825885568557
 1 -4.46880939263926 -1.79455853675368  4.13968791929193
 1 -2.22950826452645 -3.23698321562156 -0.18682930673067
 1 -1.35597342974297 -1.78736785308531  0.42463058465847
 1 -0.73112854635463 -3.28976027162716  2.34535875457546
 1 -1.36494121572157 -4.59640677187719  1.54571636963696
 1 -1.61757187098710  3.90716024042404  4.31526743644364
 1 -2.96010700080008  4.71017822382238  4.82277853555356
 1 -3.01645464046405  2.99416041354135  5.12322732873287
 1 -5.24358742264226  6.52466666106611  2.35653097449745
 1 -10.14292342584258  2.97650830793079 -3.46729998169817
 1 -10.15102590049005  4.65006885098510 -2.97557784848485
 1 -9.24205400520052  4.42921133513351 -5.18115331763176
 1 -7.83129263866387  4.94529427482748 -4.36931688668867
 1 -8.14772462146215  3.35800515931593 -5.10138006280628
 1 -8.37789537913791 -0.54379492239224 -4.81066206450645
 1 -8.07926890989099 -2.55815922102210 -4.54905754275427
 1 -9.65799587908791 -1.67404422782278 -3.64565147184718
 1 -4.13704106150615 -3.82997782438244 -1.36549983688369
 1  2.51885301830183 -6.05822376537654  0.95362131903190
 1  2.32012275567557 -4.92155913201320 -0.41099454905491
 1  3.67844996729673 -4.13040232203220  2.20430543814381
 1  2.80701568826883 -3.68096371747175 -1.63678621962196
 1  3.62328694199420 -2.11283484278428 -1.50875334583458
 1  4.36041821582158 -3.65340907010701 -1.83701262716272
 1  4.84957499839984 -1.40107653165317  0.55655753925393
 1  5.41057958525853 -2.39726135853585  2.03297817811781
 1  6.70732825952595 -3.83258645074507  0.17376526052605
 1  6.38625878627863 -2.75815342434243 -1.05292588808881
 1  7.40705963726373 -0.99176250135014  0.51883912941294
 1  7.90232233513351 -2.04191077417742  1.67342172747275
 1  8.92481659095910 -1.90757903310331 -1.09513285138514
 1  9.11070558925893 -4.30058883028303 -0.16036982938294
 1  10.69547888868887 -3.34708891099110  0.03307319381938
 1  9.69854891629163 -3.42584367586759  1.44355479817982
 1  9.60204935553555  0.03937966416642  0.25211057485749
 1  10.29725982348235 -0.88812534643464  1.55868540854085
 1  11.76396153745374 -1.70427045894589 -0.31936630983098
 1  11.09319540624062 -0.49294219911991 -1.41139247284728
 1  11.39653068656866  1.21744617381738  0.37973841864186
 1  12.54167899119912 -0.01216002460246  1.23206148634864
 1  13.42949975067507  0.52226665896590 -1.66075831453145
 1  14.55794513281328 -0.62416062876288  0.84696037603760
 1  13.89055462646265 -1.60623964026403 -0.72426874837484
 1  15.31744273267327 -0.67024022222222 -0.71900879337934
 1  13.45398359255926  2.59687430653065 -0.34211599929993
 1  14.55027172747275  1.81398168736874  0.86859407330733
 1  16.00589224502450  1.26056466916692 -1.02525901660166
 1  15.12966855025503  2.21730564336434 -2.08274965466547
 1  15.24907631223122  4.24087946594659 -0.60604260236024
 1  16.36330910101010  3.34728136953695  0.48402830323032
 1  17.88742242364236  2.96549804100410 -1.31681076067607
 1  16.03411413181318  4.63131966086609 -3.01349370917092
 1  17.81211713521352  4.43469298259826 -3.64284888998900
 1  16.55554575477548  3.36672774277428 -3.59057709230923
 1  17.98365441264126  5.08681989948995  0.22365402960296
 1  18.83549107140714  5.31442559475948 -1.44718163256326
 1  17.31063261416142  5.99289879297930 -1.18267232853285
 1 -5.53788909030903 -7.74013344644464  0.05100156245625
 1 -6.29632406270627 -6.75995308190819  1.23180668816882
 1 -4.64455262386239 -6.80417199279928  1.43189764636464
 8 -7.87658525012501  6.75637213801380 -0.38394617861786
 1 -8.92815111221122  6.40602624752475 -2.09271495429543

