%nproc=4
%Mem=2GB
# td=(NStates=1) iop(3/107=0140000000,3/108=0140000000) iop(3/107=0140000000,3/108=0140000000) CAM-B3LYP/6-31G(d,p) 

TD

0 1
12 -6.77596016811681  0.63820296439644  0.17035465496550
 6 -4.46350345684569 -1.93349177097710  0.38669894689469
 6 -4.31524333973397  2.72087372047205  0.69196207780778
 6 -9.16081878657866  3.13363738783878 -0.20416991869187
 6 -9.35868396599660 -1.80975400500050 -0.59853991269127
 7 -4.66017108900890  0.42196159385939  0.56425545764576
 6 -3.91726899249925 -0.66238594539454  0.47508806420642
 6 -2.35580899949995 -0.44453621282128  0.79610167246725
 6 -2.48370833663366  1.12272242104210  0.98258042054205
 6 -3.88352461536154  1.46682676787679  0.77292206690669
 6 -2.02680896659666  1.59370116601660  2.25881044384438
 6 -1.47411616001600 -0.99292185558556 -0.27106578027803
 6  0.03512539423942 -1.04013572017202  0.06744581808181
 6  0.90543162236224 -1.29889712661266 -1.09381755555556
 8  0.52248231633163 -0.97376998949895 -2.23894488468847
 8  1.91274156075608 -2.00199049764977 -0.69454437693769
 7 -6.63744548674867  2.56817718771877  0.16039978787879
 6 -5.62133269416942  3.25410405360536  0.62745904210421
 6 -5.97374158935894  4.77706739153915  0.63942881148115
 6 -7.33607432083208  4.78763485398540  0.38477506080608
 6 -7.71622332623262  3.43646245464546  0.14365919731973
 6 -5.06045096539654  5.84166159665967  1.11224889288929
 6 -8.14952651395140  6.10239715981598  0.31033055675568
 8 -7.72222613881388  7.27721933853385  0.28056591339134
 7 -8.80109366286629  0.57724858405841 -0.15406805590559
 6 -9.60328400080008  1.75339007430743 -0.24809586188619
 6 -10.93521015131513  1.43135300640064 -0.62409819101910
 6 -11.02969732723272 -0.01624071967197 -0.76866772227223
 6 -9.63871553485349 -0.47653581678168 -0.54993707040704
 6 -12.02334911021102  2.33443963706371 -0.84467911871187
 6 -12.19689280978098 -0.74937850015001 -1.17625575927593
 6 -12.42870973307331 -0.70051221642164 -2.68900169486949
 7 -6.92649913281328 -1.43673623492349 -0.01113375787579
 6 -8.11873453505351 -2.32864286098610 -0.30618381638164
 6 -7.61392897799780 -3.87426474887489 -0.26014702480248
 6 -6.19485510671067 -3.65840500140014  0.02019375877588
 6 -5.84704099279928 -2.12810162466247  0.13414959925993
 6 -8.15631415491549 -5.02389976777678 -0.66600941684168
 6 -4.91777798229823 -4.37819361746175  0.20690871657166
 8 -4.86964871357136 -5.63122366066607  0.05830633723372
 6 -3.83438716411641 -3.34877543674367  0.66382102930293
 6 -3.20932444334433 -3.40800697619762  1.97918763176318
 8 -3.62817805790579 -3.62478921372137  3.04805347514752
 8 -1.82912458735874 -3.37999430473047  1.94908484768477
 6 -1.17484600670067 -3.73599868996900  3.28917334253425
 6  3.05612750555056 -2.12956813371337 -1.57574881898190
 6  4.13202697009701 -1.18229523062306 -1.29874540684068
 6  5.06010676607661 -0.80716758815882 -2.16733293489349
 6  5.20522450625062 -1.23303643834383 -3.64955193739374
 6  6.24559838443844  0.09727207430743 -1.73687024552455
 6  7.51610030403040 -0.71215699779978 -1.29788652595260
 6  8.51226378667867  0.37801343594359 -0.78911739223922
 6  9.85287837723772 -0.39803672397240 -0.06036434213421
 6  9.50301781808181 -1.07213602830283  1.27931230003000
 6  10.77454978497850  0.68925377957796  0.19315415381538
 6  12.27368263876388 -0.11887057985799  0.49442775397540
 6  13.33522506510651  1.08597587228723  0.49847274567457
 6  14.81121745694569  0.11568484658466  0.76599126122612
 6  14.98027301540154 -0.36163844434443  2.11233115711571
 6  16.03089271767177  1.16742164416442  0.37101030633063
 6  17.29602908100810  0.63769899429943  0.17110023612361
 6  18.50603015041504  1.59063625482548  0.15495534873487
 6  19.80665286638664  0.97292578737874 -0.15627571127113
 6  19.75858565986599  0.10435586588659 -1.58011380258026
 6  20.94543171207121  1.95928734673467 -0.13404850075008
 1 -3.67675831413141  3.22444369536954  0.80539994169417
 1 -9.53185716821682  3.75434451955196 -0.35416905080508
 1 -10.25020751235123 -2.44614501380138 -0.83326615251525
 1 -1.98387090389039 -0.65771338913891  1.83456350465046
 1 -1.86242558115812  1.63762423862386  0.43625007840784
 1 -1.20900228392839  1.49710802520252  2.61446215731573
 1 -1.67471564546455  2.46134471087109  2.79900601840184
 1 -2.89605193769377  1.37888577387739  3.33590946004600
 1 -1.63970299059906 -2.12663393639364 -0.43516130293029
 1 -1.73569873887389 -0.50194166706671 -1.30373016381638
 1  0.54474247254725 -0.07744917821782  0.45756162136214
 1  0.16517279747975 -1.57897423122312  0.93806403850385
 1 -3.98844337473747  5.98351617951795  0.56781173887389
 1 -5.63566384698470  6.67578025392539  1.04091099719972
 1 -4.82696372457246  5.57899686068607  2.03568134043404
 1 -9.08658167226723  5.83011812101210 -0.23048942474247
 1 -12.32026157975798 -1.73314418191819 -0.84024845204520
 1 -12.94853106810681 -0.09917351755176 -0.60888852525252
 1 -13.35284310741074 -1.11892400780078 -3.06165328242824
 1 -12.19653661746175  0.22798021952195 -2.83120529002900
 1 -11.75233205760576 -1.41530484748475 -3.19126573397340
 1 -8.48347753105311 -5.02919947554756 -1.47082931093109
 1 -7.55030024462446 -6.02851286388639 -0.28499815171517
 1 -9.24486176617662 -4.79424138533853  0.20203481298130
 1 -3.06546612801280 -3.40088381328133 -0.08105641244124
 1  3.67656927232723 -3.20552782658266 -1.29601531863186
 1  2.66236052485249 -2.22709862486249 -2.52898313361336
 1  4.14054138183818 -0.70125287368737 -0.15389178757876
 1  4.36919997699770 -0.74515798829883 -4.17560767576758
 1  5.99312289068907 -0.96565524092409 -4.42968419231923
 1  5.16614044144414 -2.34714732903290 -3.92888707250725
 1  6.38701912381238  0.93267860526053 -2.52523514071407
 1  5.74879998939894  0.81839738753875 -0.82347661106111
 1  7.41286246514651 -1.61554975207521 -0.56339461786179
 1  7.78970436883688 -1.35248403870387 -2.35070454635463
 1  8.69092122352235  1.07293788858886 -1.35980876617662
 1  8.20393889198920  0.83593878207821  0.00405611401140
 1  10.40843329042904 -1.10715815951595 -0.84805196279628
 1  8.60521276557656 -1.85660447614762  1.58245660646065
 1  10.41943801320132 -1.51547542874287  1.77023891529153
 1  9.35606881848185 -0.30678190059006  2.26782808790879
 1  10.99728336613661  1.46959971987199 -0.87485465706571
 1  10.35828557515751  1.39805868146815  0.99826370667067
 1  12.44795233743374 -0.56282872237224  1.46266995029503
 1  12.40511266526653 -0.58162638323832 -0.50790378787879
 1  13.03924879487949  1.76847639263926 -0.45084398899890
 1  13.02150419521952  1.85517976927693  1.53396918631863
 1  14.82457388318832 -0.86611412741274  0.02678448724873
 1  15.05218511841184  0.22813320882088  2.80938371137114
 1  14.27043431693169 -1.12802047394739  2.08933643174317
 1  15.97110414351435 -0.95215879897990  2.39474595229523
 1  15.61395253015302  1.41868186158616 -0.44362433713371
 1  16.00484451705170  1.93997353285329  1.17704602780278
 1  17.42003331843184 -0.14475130453045  0.84233442014201
 1  17.44815233943394 -0.02867469826983 -0.58469984738474
 1  18.30120512761276  2.37649419721972 -0.60896388468847
 1  18.30256025212521  1.87952185908591  1.38025469596960
 1  20.18691125232523  0.18413125932593  0.60504385518552
 1  19.82694101210121  0.81608665826583 -2.31540366556656
 1  20.80672496249625 -0.27839964176418 -1.76671080448045
 1  18.97009973697370 -0.69456717511751 -1.74229230393039
 1  20.80058683728373  2.94761434053405  0.60306105970597
 1  21.93867160746075  1.52112869556956 -0.28879159415942
 1  20.94938159105910  2.47742522972297 -0.99065386168617
 1 -0.38294391949195 -4.24484723412341  2.75265361336134
 1 -1.80551023202320 -4.05816309000900  4.03371400800080
 1 -0.48807282058206 -2.63595207230723  3.63635778897890
 8 -11.99015739003900  3.52880767996800 -0.52154396809681
 1 -13.04392490399040  1.93741498159816 -1.46123672867287

