%nproc=4
%Mem=4GB
# td=(NStates=1) iop(3/107=0140000000,3/108=0140000000) iop(3/107=0140000000,3/108=0140000000) CAM-B3LYP/6-31G(d,p) 

TD

0 1
12 -5.73177468406841  1.16971184548455  0.25695430063006
 6 -4.87508789598960 -2.22161062436244 -0.45881274807481
 6 -3.41389017811781  1.21597188198820  2.71377675097510
 6 -6.33063185888589  4.56234949914992  0.78989919871987
 6 -7.90632639973997  1.17689854055406 -2.42756042954295
 7 -4.46109036233623 -0.26668486028603  1.12432377117712
 6 -4.33305683318332 -1.62884658625863  0.74895724532453
 6 -3.20531365586559 -2.37295059785979  1.47340170387039
 6 -2.97060023102310 -1.27560045094509  2.63718027412741
 6 -3.71378880628063 -0.07174980268027  2.14620920612061
 6 -3.58399143854385 -1.80126356775678  3.96739943934393
 6 -2.06720191339134 -2.62005941524152  0.65594089958996
 6 -0.92122376587659 -3.45513309390939  1.45876946494649
 6  0.24631973247325 -3.67412125282528  0.63267146184618
 8  0.48424848914891 -3.19089640324032 -0.45622185638564
 8  1.04854169986999 -4.61412102940294  1.17687229452945
 7 -4.97607842414241  2.65707508440844  1.55649588128813
 6 -3.96878896869687  2.40136755845585  2.50614121742174
 6 -3.81417092079208  3.66055455765577  3.18194875107511
 6 -4.60938149084909  4.65205673397340  2.57141641294129
 6 -5.30995709990999  4.01284938013801  1.56413250555056
 6 -2.87325268836884  3.77487486328633  4.35235942534253
 6 -4.77851438203820  6.11290871137114  3.03018252305231
 8 -4.17540758875888  6.64017190519052  3.92736663656366
 7 -6.91576537643764  2.58188808460846 -0.71547320362036
 6 -7.03088580338034  3.89766938413841 -0.37230891959196
 6 -7.91169635603560  4.57556428122812 -1.15891000050005
 6 -8.40066952025203  3.56940387028703 -2.09971891629163
 6 -7.71247013751375  2.40276628542854 -1.71132707920792
 6 -8.35450844174417  5.82154206360636 -1.13856336513651
 6 -9.40747511081108  3.70815121332133 -3.17381201400140
 6 -8.67760921462146  4.02055020122012 -4.59020542454245
 7 -6.34973339233923 -0.22526754445445 -1.18494358635864
 6 -7.32024155375538 -0.05533160176018 -2.11294550525053
 6 -7.50823833103310 -1.31417312091209 -2.73209573217322
 6 -6.64307385618562 -2.27734730653065 -2.13597976367637
 6 -5.93218163356336 -1.48188175327533 -1.11503763416342
 6 -8.47227268506851 -1.67210733673367 -3.83014991119112
 6 -6.20396406350635 -3.62104768866887 -1.97019057415742
 8 -6.59574396989699 -4.67371506990699 -2.63270953605361
 6 -4.97723628572857 -3.61868992159216 -0.94705702550255
 6 -5.31025850325032 -4.59670511161116  0.10646431823182
 8 -5.78701447304730 -4.43602261036104  1.22913927732773
 8 -4.89566926512651 -5.83525472187219 -0.34276742134213
 6 -5.41563912811281 -6.92778463176318  0.57818964876488
 6  2.31894286748675 -4.92945406560656  0.44809876427643
 6  3.44854938993899 -3.95315547644765  0.83110100990099
 6  4.10849023922392 -3.18169103920392  0.03088672367237
 6  3.71378571747175 -3.07717265856586 -1.40076958145815
 6  5.14167059285929 -2.26382142974297  0.58890268906891
 6  6.58004287558756 -2.53496642184218 -0.00244877747775
 6  7.54252957655766 -1.60914026952695  0.68377406790679
 6  9.02680350165016 -1.87669250285028 -0.01498928142814
 6  9.43211959365937 -3.36681732213221  0.13312985528553
 6  10.12644322342234 -0.82522275967597  0.53770628612861
 6  11.39922722512251 -0.88516812371237 -0.23847261346135
 6  12.27789547814781  0.32633726122612  0.14716156375638
 6  13.65546800260026  0.41709657955796 -0.56326108930893
 6  14.52315061406141 -0.84872427502750 -0.27799195009501
 6  14.37080301990199  1.67986415801580 -0.24123337813781
 6  15.57326151655166  1.99876790499050 -1.15849084408441
 6  16.13400598499850  3.34355910871087 -0.59197981118112
 6  17.38912416151615  3.75896373797380 -1.41383531873187
 6  17.17548013771377  3.88094298599860 -2.87220944514451
 6  17.93005241134113  5.05299056435644 -0.77569702860286
 1 -2.72973869666967  1.14347862326233  3.47852832123212
 1 -6.52520049884989  5.55950133053305  0.84691368306831
 1 -8.59795020222022  1.10594089698970 -3.24159963876388
 1 -3.40683174797480 -3.47840315571557  1.78350641144114
 1 -1.93649077297730 -1.17103476507651  2.74391566766677
 1 -3.01905168426843 -2.76479964116412  4.08412195619562
 1 -3.42322311501150 -1.17365727012701  4.86595862566257
 1 -4.69206171787179 -2.07389647054705  3.83888783928393
 1 -2.17208252195220 -3.21958147544755 -0.26419704350435
 1 -1.57227505990599 -1.64902401870187  0.19271739333933
 1 -0.77034246774677 -3.18363965956596  2.45409962866287
 1 -1.43734845644564 -4.39928705990599  1.49918171617162
 1 -1.89118923272327  3.40600012441244  4.24754066376638
 1 -2.77914890499050  4.78892609860986  4.87690394809481
 1 -3.24490748574858  3.09523052055205  5.27847285328533
 1 -5.75278834273427  6.60160435483548  2.54208953035304
 1 -10.14782391589159  3.06324698179818 -3.33526677837784
 1 -10.04535533343334  4.80430427452745 -2.93983427412741
 1 -9.48726852665267  4.44259267326733 -5.34237944024402
 1 -8.04023353275328  4.89088883428343 -4.24301425642564
 1 -8.10042989198920  3.02142150095010 -4.64140406520652
 1 -8.44785237483748 -0.97351789468947 -4.66420741904190
 1 -8.42024300730073 -2.74539794489449 -4.28168080508051
 1 -9.49815989548955 -1.62683950735073 -3.54986189288929
 1 -4.04257161456146 -3.74101892849285 -1.39339262616262
 1  2.55902703570357 -5.97498544154415  1.00718667556756
 1  2.04098484188419 -4.86466344244424 -0.71659510911091
 1  4.02692481478148 -4.03344262606261  1.81281628922892
 1  2.58940392709271 -3.16585220632063 -1.58728126912691
 1  4.05344995829583 -2.12255581488149 -1.90389285978598
 1  4.40168234223422 -3.80348407760776 -1.96824575047505
 1  4.89974001490149 -1.16342276627663  0.46071795529553
 1  5.11136966426643 -2.51167279967997  1.73548842914291
 1  6.74241176787679 -3.72970616271627  0.29083696769677
 1  6.57483764416442 -2.42159976897690 -1.05070566606661
 1  7.18805773707371 -0.41150447554755  0.51100834633463
 1  7.68284038693869 -1.67802438553855  1.80548493379338
 1  9.00468457775778 -1.81673994919492 -1.16026936503650
 1  8.63064758345835 -4.04432320372037 -0.09246303870387
 1  10.24808414921492 -3.41790599269927 -0.44367448094810
 1  9.70433949534953 -3.40683177467747  1.22663310601060
 1  9.58900805140514  0.16542226842684  0.42158752255226
 1  10.22114221172117 -1.02015854975498  1.52550209020902
 1  11.89637477877788 -1.82397242914291  0.33074870167017
 1  11.26068215491549 -1.11875478037804 -1.39258059165917
 1  11.80610164366437  1.12959738893889  0.07816826162616
 1  12.34971979527953  0.27840903230323  1.30991927212721
 1  13.48074487518752  0.26114054635464 -1.71559379807981
 1  14.85198453675367 -0.54275248794879  0.74674035403540
 1  13.95278084908491 -1.87956697299730 -0.35868218971897
 1  15.57166815521552 -0.99460265846585 -0.94341123362336
 1  13.58238643284328  2.66527114621462 -0.25854764246425
 1  14.73045974627463  1.65933622282228  0.90642785668567
 1  16.48911056685668  1.18559717241724 -1.15058154885489
 1  15.24712029542954  2.02997691049105 -2.14056543624362
 1  15.29940134473447  4.20028540654065 -0.64757675577558
 1  16.48838160826083  3.12415905730573  0.42731263166317
 1  18.13897757915792  2.84811630283028 -1.12826190579058
 1  16.57580830123012  4.98025455435544 -3.08525088488849
 1  18.34583050655066  4.27081659495950 -3.17790239533953
 1  16.84168436863687  3.00350142014201 -3.40898893349335
 1  18.25422146934693  4.99567078457846  0.20775243944394
 1  18.93718124042404  5.22991714391439 -1.30336725112511
 1  17.21551310221022  5.76381588468847 -0.89919398069807
 1 -5.27762306370637 -7.86839627272727  0.03150961326133
 1 -6.41073550385039 -6.85492257885789  0.76174968246825
 1 -4.81148931753175 -6.90284185978598  1.54784924152415
 8 -7.75449304090409  6.82451895269527 -0.40705848984899
 1 -9.08996729382938  6.14803044794479 -1.89833551635164

