%nproc=4
%Mem=2GB
# td=(NStates=1) iop(3/107=0140000000,3/108=0140000000) iop(3/107=0140000000,3/108=0140000000) CAM-B3LYP/6-31G(d,p) 

TD

0 1
12 -6.78581115321532  0.60147929202920  0.09828744824482
 6 -4.64853195969597 -1.99665808760876  0.59931020802080
 6 -4.34311612701270  2.82194382748275  0.78646152775278
 6 -9.00562326702670  3.19969399349935 -0.24131363306331
 6 -9.27019511711171 -1.70032306190619 -0.66045610431043
 7 -4.58594366626663  0.46268566626663  0.28615764786479
 6 -4.00502776837684 -0.77435714251425  0.51825238063806
 6 -2.51583500210021 -0.59571133033303  0.92499456175618
 6 -2.50586055185519  1.02448259705971  0.99040120262026
 6 -3.95706196909691  1.47241732693269  0.82224699939994
 6 -1.94120040574057  1.55997779367937  2.52730729352935
 6 -1.62067081548155 -1.06276884028403 -0.30333900760076
 6 -0.06993511181118 -0.97253896049605  0.17164623812381
 6  0.67809888908891 -1.25811304820482 -1.08138631243124
 8  0.40323039113911 -1.00302291479148 -2.21019200940094
 8  1.89715000160016 -1.84345464406441 -0.61514643714371
 7 -6.82438418061806  2.51779214921492  0.24195794369437
 6 -5.59721028192819  3.28242688588859  0.54180047624763
 6 -5.96423063826383  4.70897058185819  0.66744161276128
 6 -7.24956566996700  4.79016510701070  0.25922250555056
 6 -7.78814051795180  3.50877968636864 -0.03779894849485
 6 -5.00932585288529  5.88596602710271  1.03368103610361
 6 -7.91558311961196  6.19924684478448  0.01947147084708
 8 -7.49806372257226  7.30397201380138  0.21421927872787
 7 -8.84751830533053  0.70155101430143 -0.40015266436644
 6 -9.51027469986999  1.90524525982598 -0.33214426672667
 6 -11.00214684498450  1.48405827692769 -0.76623240444044
 6 -11.14553891139114  0.08466937133713 -0.77324818031803
 6 -9.69348101140114 -0.45256341954195 -0.60176225292529
 6 -12.23898067336734  2.52710890399040 -0.60395504630463
 6 -12.29242236273627 -0.60040360266027 -1.15879401310131
 6 -12.32996985908591 -1.06894906010601 -2.50826362106211
 7 -6.99124560746075 -1.43797635893589 -0.03446609110911
 6 -8.06757941954195 -2.28161815851585 -0.34776797479748
 6 -7.73399098419842 -3.63889121152115 -0.26059706980698
 6 -6.33023864506451 -3.60205936683668  0.17784952435244
 6 -5.98823511221122 -2.35086390089009  0.30262644694469
 6 -8.40736926042604 -4.91586896469647 -0.64882769866987
 6 -5.14396060056006 -4.50349614771477  0.34442246794679
 8 -4.95539728842884 -5.70746128442844  0.04954546114611
 6 -3.98023174857486 -3.41620217941794  0.57479212641264
 6 -3.37664117501750 -3.80703687918792  1.94707442044204
 8 -3.77735297539754 -4.19786652145215  2.97795646544654
 8 -2.02929460436044 -3.55244154945495  1.95374531373137
 6 -1.17233575567557 -4.00038512861286  3.22662708790879
 6  3.08220011281128 -2.11971714861486 -1.57000824492449
 6  3.99030279767977 -0.95097209830983 -1.21825735803580
 6  5.16660741614161 -0.74437130853085 -2.10326652825283
 6  5.53759774357436 -1.55605874057406 -3.24572155435544
 6  6.10855468006801  0.23642598969897 -1.44242080058006
 6  7.39886858085809 -0.52724850695070 -1.02941967926793
 6  8.58691125142514  0.47001263586359 -0.56622510301030
 6  9.78988207760776 -0.32493941424142 -0.12327063276328
 6  9.35153266956696 -0.88034684938494  0.98374274307431
 6  11.14981731173117  0.64448930313031 -0.04840000160016
 6  12.43161843234323 -0.05485417821782  0.44632294349435
 6  13.47756929952995  0.97321459615962  0.40780367876788
 6  14.95500183538354  0.28508178627863  0.53007766986699
 6  15.04323931203120 -0.49000128062806  1.54478440244024
 6  16.22112174057406  1.14428933093309  0.30812401770177
 6  17.57658713681368  0.43199842424242  0.24716784288429
 6  18.70175972337234  1.52137932913291  0.20342019521952
 6  20.03237543864386  1.08325682048205 -0.13575365906591
 6  19.95261506280628  0.29476490679068 -1.51655744694469
 6  21.14262143104310  2.06507792579258  0.03864876897690
 1 -3.60109074737474  3.51909316031603  1.06033543524352
 1 -9.60138412091209  4.08463754885489 -0.24172780668067
 1 -10.22168466006601 -2.53601400070007 -0.68420124602460
 1 -2.32548506530653 -1.01674929272927  1.87883793209321
 1 -1.73161249984999  1.06092656885689  0.43208966236624
 1 -1.07245862956296  1.33458177257726  2.68490920202020
 1 -2.01411958585859  2.50510908730873  2.54269038683868
 1 -2.74525685818582  1.04031191649165  3.41246711581158
 1 -1.60802982328233 -2.24828610161016 -0.68762654945495
 1 -1.76012118111811 -0.40009148204820 -1.16635642644264
 1  0.50384838313831  0.35323389008901  0.28842470767077
 1  0.36210249044905 -1.92919925372537  1.19303953605361
 1 -3.91753628402840  5.68499632753275  0.71054601230123
 1 -5.32236251685169  6.82704538043804  0.78464537063706
 1 -4.59691071927193  5.68681764276428  2.25467323962396
 1 -8.74026704080408  6.23057816701670 -0.49297567336734
 1 -12.14963451705171 -1.49382024952495 -0.48717314451445
 1 -13.26853306830683 -0.20196379657966 -0.84086172257226
 1 -13.21012883598360 -1.52744485988599 -2.72680979807981
 1 -12.39614657845785 -0.26933951245125 -3.40151232073207
 1 -11.42715954035404 -1.51901521852185 -2.83876048344835
 1 -8.69951913521352 -5.24331088668867 -1.61493372137214
 1 -7.61294650925092 -5.77436744934493  0.15900624872487
 1 -9.58272555255526 -4.93289525072507 -0.14051944244424
 1 -3.39060864226423 -3.39367309220922 -0.52094040084008
 1  3.24952656805681 -3.00396767056706 -1.39978569566957
 1  2.64850913971397 -2.10352626762676 -2.69232946824682
 1  3.58457578527853 -0.60548329672967 -0.41901830023002
 1  5.09410246724672 -1.53572704520452 -4.30236035103510
 1  6.84667824622462 -1.04523319871987 -3.86146737063706
 1  5.64825865326533 -2.67840045434544 -3.16035021882188
 1  6.63063348524853  1.08097343474347 -2.22024464166417
 1  5.63064817421742  0.61989753755376 -0.32220648404840
 1  7.32117329622962 -1.28975717281728 -0.47592587098710
 1  7.78106350475047 -1.06272506280628 -1.85870534643464
 1  9.08686081748175  1.58770936573657 -1.58538132343234
 1  8.25513401150115  1.12591777997800  0.19987569596960
 1  10.00025247234723 -0.85658310201020 -0.89346650425042
 1  8.13258550285029 -1.35121393709371  1.18809717051705
 1  10.13104917431743 -1.70054393559356  1.12839473087309
 1  9.31294450605061 -0.26816803920392  1.70802210731073
 1  11.32196583438344  1.08054081398140 -1.00398757035703
 1  10.57969771637164  1.23503237883788  0.55292917321732
 1  12.41698924112411 -0.51327376687669  1.25555923922392
 1  12.71280343434343 -0.60891911251125 -0.22152515001500
 1  13.37917278727873  1.72731227622762 -0.33782268686869
 1  13.38162020682068  1.51123537483748  1.15952174157416
 1  15.01139256505651 -0.12262977897790 -0.27448563976398
 1  14.90617051695170  0.07637803330333  2.35945871887189
 1  14.31066834033403 -1.21940961286129  1.67908540664066
 1  15.59548658175818 -0.80607419051905  2.00747722542254
 1  16.05232636753675  1.66246624002400 -0.30692066676668
 1  16.07611164376438  1.93840337583758  1.06797512071207
 1  17.91999331443144  0.02312548314831  1.03123331003100
 1  17.71434895909591  0.18745691489149 -0.79561093849385
 1  18.40061506860686  2.31284783258326 -0.14082707100710
 1  18.71680167626763  1.91041494839484  1.20631730223022
 1  20.06781934313431  0.29112195839584  0.66676002680268
 1  20.01706002400240  0.96057110671067 -2.37877000220022
 1  20.94503879387939 -0.32428423022302 -1.77930206360636
 1  19.08568129512951 -0.40375809420942 -1.51766984168417
 1  21.43114989358936  2.54001358045805  0.95656641024102
 1  22.18434617491749  1.51856843954395 -0.09458217321732
 1  21.10731738463846  2.97187467466747 -0.80581537783778
 1  0.04258863376338 -3.62236498589859  3.15189353735374
 1 -1.23813349434943 -5.15716298999900  3.32698333493349
 1 -1.47922193549355 -3.30733921102110  4.05032918611861
 8 -11.91726010031003  3.77671247044704 -0.56566838053805
 1 -13.04559507100710  1.99152039213921 -0.59706031103110

