%nproc=4
%Mem=4GB
# td=(NStates=1) iop(3/107=0140000000,3/108=0140000000) iop(3/107=0140000000,3/108=0140000000) CAM-B3LYP/6-31G(d,p) 

TD

0 1
12 -5.67138864546455  1.17487236153615  0.21466007120712
 6 -5.07139752695270 -2.06130459375938 -0.33169003580358
 6 -3.45276406550655  1.08999928472847  2.81406677997800
 6 -6.29269806550655  4.49030229442944  0.69067927672767
 6 -8.03173894099410  1.14278512921292 -2.42512018551855
 7 -4.38369262256226 -0.33493168496850  1.10270160896090
 6 -4.35004853235324 -1.57533123472347  0.76761911151115
 6 -3.25955908040804 -2.32945624842484  1.54870923462346
 6 -2.85793896489649 -1.35195808670867  2.66471302740274
 6 -3.59791721912191 -0.08491111881188  2.15810039523952
 6 -3.52269530893089 -1.71190463186319  4.01658435783578
 6 -1.94478967216722 -2.49636704600460  0.62671797729773
 6 -0.93951559505951 -3.46627420802080  1.38337192519252
 6  0.26346144664466 -3.87932177287729  0.48471666636664
 8  0.44788485278528 -3.49897721132113 -0.63613984818482
 8  1.05117196289629 -4.72514213151315  1.15218982628263
 7 -4.86847766406641  2.60026940384038  1.60232046374637
 6 -3.98014010381038  2.34380180188019  2.55220582388239
 6 -3.65365486918692  3.64427292949295  3.18412896909691
 6 -4.41670222292229  4.55610713901390  2.47118638993899
 6 -5.27847395159516  3.91981007620762  1.44845093739374
 6 -2.78426378947895  3.74448182398240  4.34786897629763
 6 -4.58203473407341  6.03051047154715  2.86199570437044
 8 -4.05244529252925  6.46016390439044  3.77906180608061
 7 -6.88107190709071  2.61765166096610 -0.75856751305130
 6 -6.97493020782078  3.92040165736574 -0.38297998669867
 6 -7.93043823022302  4.62224894969497 -1.17791190069007
 6 -8.42386183948395  3.68781571147115 -2.08639758415842
 6 -7.72407129762976  2.44622063086309 -1.76295224172417
 6 -8.32525551645165  5.96561647104711 -1.06747625642564
 6 -9.53860822412241  3.79713011121112 -3.09920455325533
 6 -8.73177463116312  3.84794294049405 -4.43283968796880
 7 -6.35709412841284 -0.17199221692169 -1.11722681468147
 6 -7.31085061466147 -0.02361843044304 -2.12299651035103
 6 -7.50171767896790 -1.33563526712671 -2.80700322292229
 6 -6.73894344314431 -2.19312888468847 -2.09803596929693
 6 -5.97064547994799 -1.32898646374637 -1.11199733013301
 6 -8.40498595639564 -1.55878600460046 -3.96904380058006
 6 -6.22996666376638 -3.63217880178018 -1.97217077217722
 8 -6.59322371787179 -4.61088878727873 -2.55346161126113
 6 -5.05212377447745 -3.54039209180918 -0.86544886468647
 6 -5.33320079747975 -4.59920536163616  0.16530020182018
 8 -5.66437220882088 -4.48167717581758  1.24973133653365
 8 -4.94531422962296 -5.87520871727173 -0.43928707330733
 6 -5.32608017221722 -6.92777463076308  0.47244907470747
 6  2.21517249044905 -4.89117023722372  0.40636459085909
 6  3.28506304130413 -3.87275743664366  0.94998289808981
 6  4.10777016721672 -3.12931580168017  0.13022665766577
 6  3.70694503340334 -2.94742968426843 -1.32432193669367
 6  5.22934936073607 -2.20756580418042  0.59384318311831
 6  6.59172404370437 -2.55350827602760  0.00925239263926
 6  7.62706803040304 -1.69902925842584  0.64805049554955
 6  8.91327214851485 -1.96259109270927  0.04021623912391
 6  9.63335971767177 -3.41230187058706  0.33124966726673
 6  9.94686526562656 -0.83853409080908  0.55970848634863
 6  11.33874117651765 -0.93677328422842 -0.05904467066707
 6  12.28938662726273  0.23927855535554  0.36834368196820
 6  13.63297575337534  0.35940080998100 -0.54209897309731
 6  14.49876817581758 -0.81395079767977 -0.19518366926693
 6  14.19157509710971  1.72781895349535 -0.15105436023602
 6  15.46597078747875  2.04452248044804 -1.09029402440244
 6  15.98905148954895  3.55504025682568 -0.68297891109111
 6  17.24224947404741  3.83038087968797 -1.49187312251225
 6  17.04130672037204  3.98914380608061 -3.02237446164616
 6  18.04919432553255  5.08709397469747 -0.87437689658966
 1 -2.85555127792779  0.87618189358936  3.51453192159216
 1 -6.83331130993099  5.49515489588959  1.26594558625863
 1 -8.78689909710971  1.26895719861986 -3.14431991079108
 1 -3.48817988278828 -3.27368268366837  1.99155721652165
 1 -1.82635975987599 -1.04820248184818  2.78469974607461
 1 -3.08869864896490 -2.75360852205221  4.44543808780878
 1 -3.40694148684868 -1.04708461286129  4.92137416721672
 1 -4.69316182788279 -1.83919300020002  3.93196714721472
 1 -2.38958427212721 -3.09324884218422 -0.16569719351935
 1 -1.50320815321532 -1.47531664796480  0.37074519611961
 1 -0.59433486698670 -3.06844814041404  2.18082230093009
 1 -1.67339206080608 -4.48304543574358  1.46567836583658
 1 -1.84006412021202  3.60415994039404  4.28102401210121
 1 -2.92410340044004  4.56348355435543  4.80715697339734
 1 -3.26579957495750  3.34181517901790  5.42752775877588
 1 -5.55101816571657  6.56598079247925  2.14823014441444
 1 -10.30142927642764  2.89644030113011 -2.81768502020202
 1 -9.90131092899290  4.59349319341934 -2.90636092679268
 1 -9.34504430423042  4.05866428042804 -5.30230543284329
 1 -8.12941245064506  4.56465621102110 -4.44432438743874
 1 -8.08399824882488  3.02048140694069 -4.72249217401740
 1 -8.21459904950495 -0.69196973987399 -4.60333133143314
 1 -8.15027601060106 -2.62465587068707 -4.57140977797780
 1 -9.41416149564957 -1.40669749314932 -3.78317522422242
 1 -4.26957431483148 -3.78685351195120 -1.47824111101110
 1  2.58479961296130 -5.99288723172317  0.79612556945695
 1  2.10749149254926 -4.85643261936194 -0.68773222282228
 1  3.28379050135014 -4.01307058885889  1.96309131673167
 1  2.62538752545255 -2.93549917101710 -1.52052459345935
 1  3.83414802810281 -1.89843340264026 -1.73442591309131
 1  4.31678385238524 -3.71451518071807 -2.03378230413041
 1  5.11303134403440 -1.04512093609361  0.33375525902590
 1  5.34454298159816 -2.42451408380838  1.68545342564256
 1  6.66137366406641 -3.59609280138014  0.11534941894189
 1  6.59403956435643 -2.42639024802480 -1.08049864536454
 1  7.27772670397040 -0.66508983408341  0.35292253775378
 1  7.77308941184118 -1.81241782488249  1.69934431973197
 1  8.99827393669367 -1.93374164936494 -1.07736107420742
 1  9.07382190089009 -4.21305007640764 -0.25893968636864
 1  10.76075541634163 -3.27977217931793 -0.12021213471347
 1  9.35700476187619 -3.63994508600860  1.48327877057706
 1  9.52647179777978  0.14063979017902  0.07004236803680
 1  10.11786188368837 -1.04136066996700  1.67140668066807
 1  11.99949509080908 -1.84094412631263  0.55383100990099
 1  11.27278336503650 -1.04653755865587 -1.10570190379038
 1  11.73136416991699  1.11222565176518  0.19954039883988
 1  12.69098392169217  0.34488567996800  1.41419970017002
 1  13.43693049374937  0.41368580088009 -1.52694493319332
 1  14.60285962426243 -0.65563377607761  0.92172785278528
 1  13.90070564156416 -1.76166518281828 -0.48963528502850
 1  15.33240422882288 -0.86678987718772 -0.70583747624762
 1  13.37820601480148  2.38179279837984 -0.17672946064607
 1  14.43212991329133  1.75232552175217  1.04253146704670
 1  16.19410106590659  1.26306491919192 -1.07089358005801
 1  15.13029861326133  2.02442635543554 -2.15087646734673
 1  15.25715712031203  4.43841921992199 -0.72954495259526
 1  16.25199796989699  3.66465310671067  0.37496739713971
 1  17.86768044944494  2.93850534173417 -1.30272935253525
 1  16.16411713211321  4.50595712461246 -3.21235359515952
 1  17.95391131463147  4.32202171547155 -3.75301990709071
 1  16.93651385158516  2.94485555555556 -3.50637867246725
 1  18.42214826202620  4.69024024152415  0.13936560076008
 1  19.04943246554656  5.12896704890489 -1.41635855025503
 1  17.62816436733673  6.17846734983498 -0.66689075037504
 1 -4.75393069446945 -7.70631006410641 -0.10463400110011
 1 -6.40427485778578 -6.81725881248125  0.76449995749575
 1 -4.77658582718272 -6.96738831443144  1.49125358195820
 8 -7.78861645324533  6.84758125892589 -0.40533831783178
 1 -9.11016931403140  6.45554119901990 -1.81487717051705

