%nproc=4
%Mem=4GB
# td=(NStates=1) iop(3/107=0140000000,3/108=0140000000) iop(3/107=0140000000,3/108=0140000000) CAM-B3LYP/6-31G(d,p) 

TD

0 1
12 -5.64688619521952  1.21991686598660  0.25682428762876
 6 -4.99243963116312 -2.16824528782878 -0.35135200200020
 6 -3.34078286738674  1.06163644844484  2.82459783308331
 6 -6.16467526322632  4.54613787798780  0.58809901870187
 6 -7.93704947204720  1.21767261796180 -2.49042671617162
 7 -4.26264051735173 -0.30979917171717  1.01467280608061
 6 -4.18459198669867 -1.60558426002600  0.63478582818282
 6 -3.11134425892589 -2.36420972377238  1.50000436413641
 6 -2.82085525652565 -1.31680457135714  2.70327688378838
 6 -3.45477290469047 -0.04425705340534  2.12156674187419
 6 -3.45996903630363 -1.74979842124212  4.05886858625863
 6 -1.86209140234023 -2.63705111441144  0.66869217471747
 6 -0.88895053855386 -3.53111069166917  1.40113370137014
 6  0.26465156565657 -3.99105294599460  0.59296749144914
 8  0.36512657695770 -3.70599791339134 -0.54996123032303
 8  1.08348519421942 -4.78201781908191  1.27896250355036
 7 -4.79323013931393  2.63930330723072  1.39958018971897
 6 -3.98182027182718  2.38666608830883  2.42770337363736
 6 -3.65080458415842  3.61632013421342  3.16274683088309
 6 -4.47880843354335  4.68067959625963  2.58233750505051
 6 -5.14112021622162  3.98564665986599  1.47699379167917
 6 -2.63260862396240  3.72907028282828  4.25120931033103
 6 -4.57540407100710  6.12223964446445  2.91065056985699
 8 -3.79217926592659  6.65447333533353  3.70066396629663
 7 -6.80773457335734  2.63344324012401 -0.80045170147015
 6 -6.93103581838184  3.93324294149415 -0.33074476317632
 6 -7.90651583798380  4.62578930373037 -1.16273038253825
 6 -8.41905135843584  3.68332526242624 -2.07355630003000
 6 -7.76639553005301  2.42835884468447 -1.77514346084608
 6 -8.31041403230323  6.06011592099210 -1.01458096689669
 6 -9.24161852515252  3.94942534073407 -3.22369700250025
 6 -8.68076953065307  3.88813695989599 -4.66372277627763
 7 -6.32834125312531 -0.14484950265026 -1.14067915991599
 6 -7.26625615521552 -0.03852992159216 -2.11007521822182
 6 -7.54714222142214 -1.28923062666267 -2.70468299089909
 6 -6.68217776657666 -2.19285885768577 -2.01874804050405
 6 -5.93875229062906 -1.45347891299130 -1.12213834423442
 6 -8.57700315811581 -1.59641976797680 -3.72868976517652
 6 -6.29183285038504 -3.56943252715272 -1.92230578567857
 8 -6.65233962946295 -4.57514521292129 -2.53294956005601
 6 -5.07584614671467 -3.48718677127713 -0.89472179197920
 6 -5.47238471587159 -4.60509595069507  0.12361603340334
 8 -5.81285705730573 -4.39375838393839  1.26173253665367
 8 -4.93322302050205 -5.81192238863886 -0.35515866046605
 6 -5.20020758495850 -6.93203505680568  0.50276210601060
 6  2.32355332853285 -5.15421654185419  0.51682563696370
 6  3.30213474847485 -4.24042420332033  0.94680258005801
 6  4.04828421862186 -3.44609747984798  0.13428706370637
 6  3.77455179407941 -3.27961290259026 -1.42623212771277
 6  5.08863528932893 -2.51973702130213  0.62365616441644
 6  6.45177004830483 -2.73879680488049  0.06783825122512
 6  7.45754107770777 -1.81709106460646  0.57604329482948
 6  8.86438726002600 -1.95464029762976 -0.10574835733573
 6  9.55039142084208 -3.31977261766177  0.11482802510251
 6  9.90394097319732 -0.91764200160016  0.36859937543754
 6  11.22601990439044 -0.72787239413941 -0.35764453065307
 6  12.10210789938994  0.45582020952095  0.10555740334033
 6  13.46149860566057  0.50410528042804 -0.61062582578258
 6  14.30571887088709 -0.71170057265727 -0.19304345524552
 6  14.13032897249725  1.82774894649465 -0.14077333213321
 6  15.30129431983198  2.14418244644464 -0.99917491249125
 6  15.88904148854886  3.49932468526853 -0.59290990419042
 6  17.15806105520552  4.02652049364936 -1.26144007920792
 6  17.07309989968997  4.12412730443044 -2.80445266946695
 6  17.71097050315031  5.27295256055606 -0.66341580048005
 1 -3.00207593039304  1.12642691809181  3.90265073347335
 1 -6.27528550735073  5.60816619701970  0.50806979867987
 1 -8.76469687688769  1.34267457035704 -3.35555103390339
 1 -3.70037110191019 -3.17364267966797  1.78404646544654
 1 -1.70467759165917 -1.24431209280928  2.86018729482948
 1 -2.87478725782578 -2.66662982418242  4.44198774277428
 1 -3.02161295399540 -0.80432033643364  4.70177220702070
 1 -4.46811932363236 -1.87955703660366  4.01571552205221
 1 -2.01490680438044 -3.18129764706471 -0.15239586338634
 1 -1.35857368976898 -1.73846296259626  0.38596671827183
 1 -0.66180161366137 -3.11040233583358  2.35958017671767
 1 -1.37664238583858 -4.52545967716772  1.74117591559156
 1 -1.67902801660166  3.12295181958196  4.04032994269427
 1 -2.22808379847985  4.91709891589159  4.63475973367337
 1 -2.96367936293629  3.23804480198020  5.19813481948195
 1 -5.21286435033503  6.73275747014701  2.13617893929393
 1 -9.98369750325032  2.94390504760476 -3.35978923062306
 1 -10.07569836773677  4.90227407150715 -3.01468175887589
 1 -9.62322212201220  4.03357177117712 -5.33919912221222
 1 -8.01321083048305  4.69559930533053 -4.63812376737674
 1 -8.04871472047205  3.02403176197620 -4.80989091389139
 1 -8.56561415101510 -0.89309985288529 -4.67983898219822
 1 -8.65407639063907 -2.58187159225923 -3.98054069106911
 1 -9.59147922742274 -1.37600442384238 -2.99998690539054
 1 -4.11290864826483 -4.03585841244124 -1.39748303520352
 1  2.51979311231123 -6.15320326332633  0.86204216111611
 1  2.02127287068707 -4.91906888298830 -0.58362181178118
 1  3.43178530083008 -4.25310459225923  1.92455746334633
 1  2.66966195289529 -3.68187380848085 -1.62574511551155
 1  3.81210582388239 -2.31479503880388 -1.75588805930593
 1  4.24905707970797 -4.12505623482348 -1.94831375727573
 1  4.97715775667567 -1.38955537953795  0.44163604710471
 1  5.01139966726673 -2.69188082048205  1.74282916321632
 1  6.80072759945995 -3.76938013011301  0.09694757875788
 1  6.47204736513651 -2.63166077507751 -0.97357795329533
 1  7.00621955325533 -0.77854117921792  0.68051529702970
 1  7.73763586648665 -2.02548913201320  1.68834321962196
 1  8.59248335763576 -1.77784605980598 -1.28255159325933
 1  8.80548506720672 -4.14145291669167 -0.17298109050905
 1  10.60161950275027 -3.41460566266627 -0.37316743024302
 1  9.44324338573857 -3.66547763926393  1.23797424012401
 1  9.62292144274427  0.07831355755576  0.29693505730573
 1  10.18060815831583 -1.20302683658366  1.49752929292929
 1  11.70523566486649 -1.66423645554555 -0.38405277847785
 1  11.02782886958696 -0.71531443634363 -1.26479781338134
 1  11.52646367986799  1.21545597479748  0.02832327712771
 1  12.40718554185418  0.40916210761076  1.24897317751775
 1  13.37551435213521  0.55534996729673 -1.71753399209921
 1  14.56287562586258 -0.82357056975698  0.92954863486349
 1  13.90895646664666 -1.71744076037604 -0.34084040554055
 1  15.24822581098110 -0.70672387058706 -0.87532442494249
 1  13.31527972217222  2.59665428452845 -0.01668345604560
 1  14.54088078837884  1.77987827702770  0.99061627552755
 1  15.95631728752875  1.28311692439244 -0.95350184088409
 1  15.05472105550555  1.96573048584858 -1.92024340404040
 1  15.24186559115912  4.28952433043304 -0.56398839693969
 1  16.09456222632263  3.55487212861286  0.50446034643464
 1  18.08535221662166  3.32167365856586 -1.02681176077608
 1  16.30319103950395  4.75222175107511 -3.18254061386139
 1  18.07529345284529  4.14985449874988 -3.21918652375237
 1  16.69926012621262  3.18182925292529 -3.22085011961196
 1  17.97171321852185  5.09093031053105  0.55541720592059
 1  18.69974749704971  5.47731188338834 -1.20917783218322
 1  17.06082763366337  6.25007451055106 -0.72137619891989
 1 -5.08911421282128 -7.78449788288829 -0.03457699539954
 1 -6.20357478777878 -6.78504559115912  0.74583809130913
 1 -4.63924209280928 -6.81677325292529  1.39763422002200
 8 -7.78013560516052  6.93147964876488 -0.31310909490949
 1 -9.24487278437844  6.06620226512651 -1.77195287808781

