%nproc=4
%Mem=2GB
# td=(NStates=1) iop(3/107=0140000000,3/108=0140000000) iop(3/107=0140000000,3/108=0140000000) CAM-B3LYP/6-31G(d,p) 

TD

0 1
12 -6.70964353645365  0.60978012211221  0.04050166966697
 6 -4.54034114061406 -2.14339276107611  0.51632190919092
 6 -4.12889470487049  2.80436206930693  1.09236211781178
 6 -8.87144984968497  3.27581160526053 -0.06530603230323
 6 -9.20617871547155 -1.45399842944294 -0.68612867156716
 7 -4.61728680058006  0.34068346604660  0.55207423952395
 6 -3.95524278987899 -0.88482818961896  0.74814536993699
 6 -2.40362378097810 -0.55638739793979  1.03011507380738
 6 -2.48439840564056  0.77494764356436  1.47089925242524
 6 -3.85042130503050  1.30868095329533  1.14541931663166
 6 -2.06005229092909  1.19560135603560  2.79897446024602
 6 -1.55087383578358 -1.02746530993099 -0.05668434213421
 6 -0.04424254255426 -1.18389009560956  0.52054112761276
 6  0.84220529972997 -1.38136537343734 -0.60591876567657
 8  0.79754982308231 -1.05061767426743 -1.75321631183118
 8  1.87355764236424 -2.14047434603460 -0.13029795229523
 7 -6.58122986518652  2.58628899889989  0.33296704460446
 6 -5.51541210211021  3.36844548774877  0.69479577577758
 6 -5.86994120932093  4.73443312811281  0.78110297889789
 6 -7.11050176357636  4.92309840034003  0.44165074837484
 6 -7.70103180708071  3.54316312471247  0.21517634903490
 6 -4.84674959525953  5.81482891339134  1.04649231723172
 6 -8.02065362666267  6.17991491159116  0.49574909860986
 8 -7.57059097529753  7.24487610421042  0.69708756555656
 7 -8.71015456895690  0.83031389058906 -0.39944259335934
 6 -9.42094576697670  1.94720945624562 -0.45105615791579
 6 -10.86125275557556  1.71024089518952 -0.82391817301730
 6 -10.88784314181418  0.37886879127913 -1.10225108060806
 6 -9.59155081838184 -0.19599776297630 -0.70345242194219
 6 -11.88060483578358  2.80042623572357 -0.99557420822082
 6 -12.03602672317232 -0.28615217751775 -1.71896002970297
 6 -11.74288115021502 -0.96600876607661 -3.07949074377438
 7 -6.75257174007401 -1.27116967826783 -0.18060070457046
 6 -8.07475013661366 -2.09515951265127 -0.41031422942294
 6 -7.60925851095110 -3.53318064046405 -0.52871388148815
 6 -6.30451607280728 -3.60828998989899 -0.04259251985199
 6 -5.84960124882488 -2.16480529502950  0.14450063436344
 6 -8.44070259375938 -4.80978835663566 -0.83910672657266
 6 -5.04303050755076 -4.51557735583558  0.06397442314231
 8 -4.94866661536154 -5.65123566186619 -0.00593008640864
 6 -3.90992471787179 -3.46356691589159  0.42501714891489
 6 -3.62154566546655 -3.78951512701270  1.74316402940294
 8 -4.11147638773877 -4.24154088888889  2.82399106890689
 8 -2.05985766066607 -3.78657496279628  1.85951589078908
 6 -1.43824234633463 -4.15604069416942  3.01261568676868
 6  3.13815570837084 -2.45942111901190 -1.07529877397740
 6  4.14468823622362 -1.23079008010801 -0.98963449574958
 6  5.12930368576858 -1.19437630903090 -1.79888609020902
 6  5.19910389418942 -2.39814294899490 -3.03508049024902
 6  6.26305012961296 -0.12522017491749 -1.65701225972597
 6  7.36295498949895 -1.01893767586759 -0.92002874017402
 6  8.54339689999000 -0.12074644004400 -0.55749422992299
 6  9.75948903830383 -0.60394731503150  0.11992368666867
 6  9.53083059935994 -1.15292410711071  1.24450881968197
 6  10.87163949394940  0.58006286048605  0.17519235763576
 6  12.28014328482848 -0.09544823762376  0.19682799399940
 6  13.21470301290129  1.02921019571957  0.18158105650565
 6  14.68480481568157  0.51817509560956  0.51663632573257
 6  15.03926891499150  0.12322004150415  2.00649057305731
 6  15.73695332373237  1.53823872587259  0.11953515881588
 6  17.13294277237724  0.91836706110611  0.02393551965196
 6  18.28554810221022  2.02150934213421 -0.63907405420542
 6  19.66646884798480  1.32608110291029 -0.62484256795680
 6  19.66755655695570  0.63574900520052 -1.92275806700670
 6  20.65170233913392  2.39591100910091 -0.37519261516152
 1 -3.91185182348235  3.57052830383038  1.51617101880188
 1 -9.87165114761476  4.04992407750775 -0.62288592249225
 1 -9.88842133373337 -1.97382778207821 -0.95274810071007
 1 -2.10797331413141 -1.36688430623062  1.96479652795280
 1 -1.77828716731673  1.07388786498650  0.52008846224623
 1 -1.04960634433443  0.86136445084508  2.82843355445545
 1 -2.12497067096710  2.44399297569757  2.75946206400640
 1 -2.69575190769077  0.95268315361536  3.60457632673267
 1 -1.95702472277228 -2.26337761076108 -0.44826261306131
 1 -1.81670683968397 -0.36439791269127 -1.11768155895590
 1  0.37103510181018 -0.02389382268227  0.70608647384739
 1  0.08440472067207 -1.78691502530253  1.11296152825282
 1 -4.26173070347035  5.84534236213621  0.23516847454745
 1 -5.12768304890489  7.08424110001000  1.12133904000400
 1 -4.40912194039404  5.73781274227423  2.10719849214921
 1 -8.91826484058406  6.22748785798580  0.24741836603660
 1 -12.45831538513851 -1.04628549604960 -1.20563499069907
 1 -12.78510472547255  0.75149154895490 -1.78445608200820
 1 -12.58467629072907 -1.76959907530753 -3.74735185228523
 1 -11.69070603440344 -0.27881045954595 -3.89281145064506
 1 -10.94251107550755 -1.49757307430743 -3.28580518791879
 1 -8.89634881818182 -4.50818737433743 -1.91618384638464
 1 -7.91068628322832 -5.71713172577258 -0.90722037393739
 1 -9.21486876687669 -5.02113407460746 -0.35926131663166
 1 -2.83245282668267 -3.43800752565257 -0.31030933773377
 1  3.14248586398640 -3.42042931673167 -0.62519823692369
 1  2.82097638643864 -2.44094000900090 -1.97352758805881
 1  4.07121444914492 -0.82634538293829  0.08334193579358
 1  4.30322337933793 -1.80104357685769 -3.74207432243224
 1  6.43559713811381 -2.08696737213721 -3.85340656455646
 1  4.95668949634964 -3.70624323862386 -2.46694087788779
 1  6.45725614751475  0.47228256565657 -2.48430104730473
 1  5.74802991239124  0.76187173497350 -0.89318358175818
 1  6.93232441134113 -1.61806000310031  0.01792351395140
 1  7.86968236663666 -2.17416620692069 -1.92755223112311
 1  8.73213534493449  0.59054964976498 -1.45477826312631
 1  8.26538503660366  0.46675186338634  0.26490219861986
 1  10.14082652975297 -1.21846929062906 -0.53041019861986
 1  8.77307955225523 -2.18987780348035  1.55438379917992
 1  10.23077914731473 -1.87079096029603  1.59238112951295
 1  9.23780699229923 -0.40814203660366  2.12356366146615
 1  10.90229386718672  1.28222098199820 -0.96762393399340
 1  10.89901964856486  1.28910778637864  0.96909078937894
 1  12.43578112031203 -0.52718515801580  1.31297498079808
 1  12.39779193319332 -0.98126634723472 -0.65668866636664
 1  13.23169803980398  1.73280282528253 -0.60980988558856
 1  12.77499954475447  2.19161341264126  0.81259704910491
 1  15.03243466926693 -0.48989650565056 -0.08280647184718
 1  14.82200210011001  1.00830122562256  2.57023979697970
 1  14.15520279377938 -0.62642031393139  2.44097159525953
 1  15.97073410651065 -0.40691427452745  2.25446192389239
 1  15.18508964386439  1.78265825922592 -1.22624259895990
 1  15.56275030763076  2.54581411691169  0.68516683988399
 1  17.23927524262426  0.63078624922492  0.92212239893989
 1  17.09027655185519  0.05165333453345 -0.77621899929993
 1  18.21745675277528  2.21400794859486 -1.95856884518452
 1  18.39618961506151  2.92820672757276  0.15081175167517
 1  19.67088965016502  0.62309515571557  0.35657900870087
 1  19.42678099609961  1.04735978557856 -2.88714083928393
 1  20.57281157115711  0.36911510971097 -1.85917005040504
 1  19.00850357735774  0.00556283788379 -2.11292936763676
 1  19.97624440304030  2.83992357145715  0.40324107770777
 1  21.61486922722272  2.43038962166217 -0.48054076907691
 1  20.83588024092409  3.14756224342434 -1.23956875317532
 1 -0.62159778487849 -4.26074882428243  2.77800614861486
 1 -1.66317599859986 -5.13936120982098  3.75449608620862
 1 -1.56905091839184 -3.14193267036704  3.76628078127813
 8 -11.67968634293429  4.04095889508951 -0.92272408610861
 1 -12.65059557105711  2.36845808590859 -1.46939754475447

