%nproc=4
%Mem=2GB
# td=(NStates=1) iop(3/107=0140000000,3/108=0140000000) iop(3/107=0140000000,3/108=0140000000) CAM-B3LYP/6-31G(d,p) 

TD

0 1
12 -6.77711028312831  0.51160030413041  0.21630925042504
 6 -4.48878598509851 -1.89880830263026  0.32339261626163
 6 -4.38638045344534  2.82812444554455  0.82912579417942
 6 -9.06265897059706  3.34388841294129 -0.21961146284628
 6 -9.39617771537154 -1.77466049564956 -0.32873293199320
 7 -4.71285635753575  0.41633103080308  0.47582661476148
 6 -3.87261452705271 -0.78976868366837  0.56171672707271
 6 -2.37393081168117 -0.46636839603960  0.64323638593859
 6 -2.24233419921992  1.00297044584458  0.94253641614161
 6 -3.87216347924792  1.46816690189019  0.64695947064706
 6 -1.84152043774377  1.21568336423642  2.38254281708171
 6 -1.70648939733973 -1.01951451485149 -0.39455812951295
 6 -0.12221033933393 -1.41154286088609  0.02609168266827
 6  0.77908898809881 -1.47492472937294 -1.09201737553755
 8  0.65269533763376 -1.03340595309531 -2.23275426562656
 8  1.90550083668367 -2.13010330893089 -0.82195711821182
 7 -6.71404314651465  2.70112048204820  0.37161090899090
 6 -5.63893445434543  3.31695033823382  0.72670896709671
 6 -5.89609382458246  4.84410409520952  0.80977584618462
 6 -7.27501821522152  4.99119521002100  0.43941052435243
 6 -7.77828953285329  3.54602341074107  0.14451928332833
 6 -4.94664958525853  5.91603903440344  1.09425709370937
 6 -7.93794535583558  6.17566448654865  0.36479600330033
 8 -7.44286820302030  7.25230684728473  0.43974183098310
 7 -8.92686624012401  0.77377823702370 -0.24395704480448
 6 -9.52973664606461  1.91265600090009 -0.37339839213921
 6 -10.95714234453445  1.59568944004400 -0.73744952615262
 6 -11.01240559805981  0.07855876027603 -0.73831468696870
 6 -9.66898856215622 -0.35256341954195 -0.42861493819382
 6 -12.02835961126113  2.59425561866187 -0.87602225302530
 6 -12.24056717721772 -0.66984054635464 -1.04581271497150
 6 -12.01469833193319 -1.35078724392439 -2.44172696739674
 7 -6.95376185908591 -1.37771033233323  0.09343669916992
 6 -8.17834049564956 -2.22014201090109 -0.20975417341734
 6 -7.72259984508451 -3.85280260266027 -0.07623863396340
 6 -6.31143676487649 -3.74882404330433  0.18103984338434
 6 -5.86474276297630 -2.22695150965097  0.03050923522352
 6 -8.78790731423142 -4.84890226802680 -0.39119193509351
 6 -5.05855205970597 -4.47460325842584  0.16576460216022
 8 -4.80773252195219 -5.64053459175918  0.09146965356536
 6 -3.78774249964997 -3.29945050425043  0.22559720692069
 6 -2.99930344124412 -3.58469464496450  1.61954166716672
 8 -3.47894313441344 -3.83081981678168  2.70226889668967
 8 -1.78602027692769 -3.52594890019002  1.39791973117312
 6 -1.10585910801080 -3.74000909100910  2.87101152635264
 6  3.00801269406941 -2.10047522442244 -1.67136838093809
 6  4.05639940734073 -1.32637963906391 -1.31858739103910
 6  5.05880663606361 -0.98601547294729 -2.07174337593759
 6  5.48607259105911 -1.46298943364336 -3.35949293149315
 6  6.21015484008401  0.06416876397640 -1.41024758325833
 6  7.39232792679268 -0.55272105420542 -0.87855459275928
 6  8.46596915721572  0.34918055265527 -0.47815629612961
 6  9.81482457185719 -0.39710663096310  0.10260195449545
 6  9.42119963626363 -0.94584339903990  1.47903227202720
 6  10.79108143814381  0.73043789798980  0.27643248164816
 6  12.07510278077808 -0.02223091589159  0.39624793599360
 6  13.31038258085809  1.09267654235424  0.33534643304330
 6  14.59579591479148  0.25180845894589  0.58010267236724
 6  14.96610159825983 -0.17897017751775  2.19787971197120
 6  15.85450507890789  1.36069097109711  0.12931613691369
 6  17.33092257035704  0.56396162056206  0.18491161726173
 6  18.27910745814582  1.68098528972897 -0.33018316511651
 6  19.85896809790979  0.99267776257626 -0.08614869856986
 6  20.22180198149815 -0.07703227292729 -1.27645343654365
 6  20.89976714561456  2.26687810581058 -0.28651374727473
 1 -3.30762140044004  3.52373362436244  0.67803720542054
 1 -9.83598758125813  4.12110119521952 -0.34201783568357
 1 -10.31345383698370 -2.53968436773677 -0.39873269916992
 1 -2.03358587538754 -1.01391900970097  1.50491053935394
 1 -1.73256259485949  1.64624510071007 -0.10086363296329
 1 -0.79360074377438  0.94827314171417  2.43460417151715
 1 -1.66344451835184  2.17065564196420  2.52073819161916
 1 -2.40079241174117  0.98342622792279  3.25834170327033
 1 -1.90003902420242 -1.73224449744975 -0.87792557935794
 1 -1.86254142314231 -0.18747021992199 -1.11667145794579
 1  0.08133613191319 -0.73227466076608  0.90048591379138
 1 -0.21607532733273 -2.19682601640164  0.46538677077708
 1 -3.82717724812481  5.67462529042904  0.58841379907991
 1 -5.48958923952395  6.77628030393039  1.05760266636664
 1 -4.52806383458346  5.76262522352235  1.98476624892489
 1 -8.73918693279328  6.07052216141614  0.24144776897690
 1 -12.36920647424742 -1.26572744024403 -0.36185061226122
 1 -13.11776799179918 -0.06846044624463 -0.82169980638064
 1 -12.86113393649365 -1.76976909230923 -2.71826894399440
 1 -11.51758872267227 -0.85270784928493 -3.60257242674267
 1 -11.45566239063906 -2.20488380538054 -2.18945555295530
 1 -8.93468265156516 -5.17795435103510 -1.58023025102510
 1 -8.60724593919392 -5.83587359996000 -0.13285293719372
 1 -9.52272955295530 -4.86000796199620  0.47119172867287
 1 -3.03386296769677 -3.09355308020802 -0.72282058885889
 1  3.13680529592959 -3.33357063086309 -1.80525624272427
 1  2.75047933673367 -1.96722263726373 -2.96249648494849
 1  4.02534986268627 -1.05352810121012 -0.15458185658566
 1  4.66832988998900 -1.16624009650965 -4.28825894089409
 1  6.39773335173517 -1.09196787218722 -3.77606883078308
 1  5.70213404080408 -2.37693030733073 -3.47228141194119
 1  6.51225164706471  0.62414775217522 -2.01996461366137
 1  5.44561967136713  0.58931447924792 -0.68588285168517
 1  6.99229040794079 -1.13569176627663 -0.22757103550355
 1  7.80610600900090 -1.51239002930293 -1.41441091699170
 1  8.91465359675967  0.88648924372437 -1.32703548884889
 1  8.21478997709771  1.32449763796380  0.26938264666467
 1  9.98442088918892 -1.22808025172517 -0.53638079567957
 1  8.80630287458746 -2.00525934163416  1.48813717451745
 1  10.28292436183618 -0.97324120532053  1.89642153355335
 1  8.72703591519152 -0.11253247564756  2.44721602670267
 1  10.89707334513451  1.34523728362836 -0.44891206280628
 1  10.58765851245125  1.45127400300030  1.13918779907991
 1  12.03717125932593 -0.87757019651965  1.31030471377138
 1  12.37305945994599 -0.94267248784878 -0.30817381488149
 1  13.29108397839784  1.51678122312231 -0.70600950555056
 1  13.05459750455045  1.73151740304030  1.14229001840184
 1  14.58486991279128 -0.85584310031003 -0.08415660686069
 1  14.64620452035204  0.86085648114811  3.03382615561556
 1  14.04213148664866 -1.02365003690369  2.75639313741374
 1  15.80856788988899 -0.51075465856586  2.25061153885389
 1  15.75182631753175  1.73247324072407 -1.04296427112711
 1  15.70690472307231  2.28587812331233  0.95272359555956
 1  17.45751706680668 -0.29738656805681  1.28725891259126
 1  17.14657218141814 -0.37055888668867 -0.60612198959896
 1  18.27745275237524  1.62852940074007 -1.76897988628863
 1  17.97772776887689  3.06410031693169  0.44494116461646
 1  19.96705926712671  0.69502234843484  1.22140549134914
 1  20.19261757975798  0.53009805940594 -2.59857198239824
 1  21.25438972897290 -0.65285708750875 -1.42886702010201
 1  19.90752347934793 -0.99452717111711 -1.34015208990899
 1  20.36348312691269  3.44216379547955  0.33791454505451
 1  22.03564130443045  1.73495007770777  0.20682796779678
 1  20.79454610751075  2.80255774297430 -1.55710050635064
 1 -0.09146477157716 -3.04955770517052  2.20939928792879
 1 -0.96064574557456 -4.71635890959096  3.30648128472847
 1 -1.11099511281128 -3.44507298439844  3.48922307550755
 8 -12.04946332063206  3.73456825602560 -0.70611242494249
 1 -12.89662017351735  1.94464570467047 -1.02726333133313

