%nproc=4
%Mem=2GB
# td=(NStates=1) iop(3/107=0140000000,3/108=0140000000) iop(3/107=0140000000,3/108=0140000000) CAM-B3LYP/6-31G(d,p) 

TD

0 1
12 -6.64823739583958  0.60818996309631  0.03739135863586
 6 -4.62676978347835 -2.06165458725873  0.48343862086209
 6 -4.16164798019802  2.75703733683368  0.99382226382638
 6 -8.77757046174618  3.25090911501150 -0.34488399009901
 6 -9.26377447504751 -1.63474650425042 -0.85280533923392
 7 -4.79317438933893  0.37753715141514  0.73058209030903
 6 -3.97791505710571 -0.86053576037604  0.79233978937894
 6 -2.44114753335333 -0.51678343754375  1.00851291359136
 6 -2.38179814561456  0.96796694549455  1.28075023752375
 6 -3.94416067896790  1.39304939013901  1.07861263596360
 6 -1.95082136783678  1.32143393929393  2.79613417621762
 6 -1.65064381278128 -1.16772933633363 -0.04522319601960
 6 -0.12620073837384 -1.06234794139414  0.54054312781278
 6  0.94167524672467 -1.31768900580058 -0.59425759955996
 8  0.86679674777478 -0.87621023352335 -1.72437342754275
 8  1.87246753335334 -2.25444574317432 -0.24571949444944
 7 -6.57273901610161  2.53151352135214  0.33421716961696
 6 -5.48133869476948  3.23114175737574  0.66236253245325
 6 -5.75794000920092  4.75783546834683  0.73203807240724
 6 -7.09035974937494  4.79694578507851  0.47260384368437
 6 -7.57129883378338  3.44314312271227  0.02557738913891
 6 -4.81642656295629  5.77247467796780  1.30197786578658
 6 -7.83244480578058  6.16758367846785  0.17692721642164
 8 -7.31557547374737  7.25444706130613  0.36536439323932
 7 -8.74481803530353  0.69813067226723 -0.49906255535554
 6 -9.42888656105611  1.92621735703570 -0.50546159845985
 6 -10.73924055435544  1.56921679277928 -0.85166094729473
 6 -10.96196055355536  0.33002390679068 -1.00612146764676
 6 -9.57123878717872 -0.31010917411741 -0.80618269496950
 6 -11.88925570087009  2.61336752985299 -0.99178382918292
 6 -12.06437955845585 -0.59638320062006 -1.50266840054005
 6 -12.05823268536854 -0.78526069126913 -2.96434922962296
 7 -7.03783026592659 -1.28912147344734 -0.10697334183418
 6 -8.11860452205221 -2.16125612231223 -0.60110330833083
 6 -7.55222280738074 -3.50009733213321 -0.56894790489049
 6 -6.53228885008501 -3.59616877777778  0.07524926432643
 6 -6.12049833853385 -2.25032384688469  0.30583676797680
 6 -8.35342386588659 -4.64286166396640 -0.96421923782378
 6 -5.32397860236024 -4.36063186128613  0.11656968266827
 8 -5.02862461116112 -5.56889742804280 -0.19715920932093
 6 -4.00744446984698 -3.40885144434443  0.46647129432943
 6 -3.55372888378838 -3.72188836433643  1.80222993599360
 8 -4.07644288438844 -4.15076181098110  2.76495516531653
 8 -2.03592526742674 -3.74348065336534  1.79041898109811
 6 -1.44628315041504 -4.27101219131913  2.92944736993699
 6  3.06330822362236 -2.39095427232723 -1.00556180028003
 6  4.12877664506451 -1.32722972407241 -0.73059859215922
 6  5.05454621002100 -1.16999387078708 -1.58409461106111
 6  5.14832881668167 -1.89244237893789 -2.88653563576358
 6  6.12679650425043 -0.02220987388739 -1.33556011451145
 6  7.35453414741474 -0.77800358245825 -0.80440717801780
 6  8.56090865116512  0.21572720732073 -0.25683416391639
 6  9.88779186858686 -0.51341826212621  0.08610030433043
 6  9.57586510281028 -1.10160897559756  1.37974234303430
 6  10.90636296629663  0.52278713291329  0.24750958935894
 6  12.39939521002100 -0.13783247604760  0.35964427562756
 6  13.43847539013901  1.10650792549255  0.27504040244024
 6  14.89592592779278  0.63500677877788  0.40773543564356
 6  14.94909989808981 -0.02184446494650  1.83272319631963
 6  15.88133776217622  1.48854375637564  0.05050825612561
 6  17.21212069016902  0.97480270467047 -0.20501737563756
 6  18.26567611501150  1.92691988318832 -0.33330347714771
 6  19.70184238533853  1.19135763056306 -0.55517560126013
 6  19.64195399669967  0.46250168046805 -1.92681847304731
 6  20.73906107500750  2.30048146614662 -0.64955005090509
 1 -3.47563820212021  3.61990324132413  1.43332273397340
 1 -9.64520850335033  3.94618370347035 -0.73640727462746
 1 -10.13251574317432 -2.46027642694269 -1.07611043694369
 1 -2.37517003380338 -1.15718333613361  2.14989503780378
 1 -1.70574991359136  1.84432490869087  0.35665211861186
 1 -0.73248463216322  1.14859317371737  3.26602731383138
 1 -2.14155232913291  2.87666624302430  2.61624774257426
 1 -2.62202453495350  0.58691657695770  3.47265313441344
 1 -1.59809883018302 -2.60109138213821  0.01810402360236
 1 -1.50873604260426 -0.92178365126513 -1.35331512231223
 1  0.10330832913291 -0.21134256755676  1.01150701590159
 1 -0.31359507930793 -2.06258259205921  1.42689292139214
 1 -3.99002353275328  5.81946977487749  0.49574453215322
 1 -5.50046032663266  6.78153082898290  1.78826573267327
 1 -4.16083711191119  5.25044400540054  1.94086185848585
 1 -8.82045505960596  6.15221033023302 -0.16379275507551
 1 -11.91892144574457 -1.45299616711671 -0.54469889708971
 1 -13.35526174117412 -0.19299289948995 -1.34185182158216
 1 -13.14099192229223 -0.87264938033803 -2.98572568966897
 1 -11.43986094989499  0.13975139663966 -3.68951112061206
 1 -11.74715153955395 -1.82432574957496 -3.31547815521552
 1 -9.05014419771977 -4.59633618921892 -1.78792102010201
 1 -7.73279849444945 -5.79080909350935 -1.14880453235324
 1 -8.82044932493249 -5.13193515471547 -0.00389578007801
 1 -3.20699028042804 -3.61892561746175 -0.51498980578058
 1  3.54270588598860 -3.43251052485249 -0.74257997509751
 1  2.79334362316232 -2.51685760076008 -2.00902113741374
 1  3.58823615131513 -0.50869361776178  0.20888449004901
 1  4.12488554555456 -1.81936540904090 -3.41877199219922
 1  5.97389096749675 -1.35379405480548 -3.33295451935194
 1  5.64635846324633 -2.69599221352135 -2.71827601140114
 1  6.33123354525453  0.35255059245925 -2.28923154035404
 1  5.52432754215422  0.29437498529853 -0.52411667506751
 1  6.88877005590559 -1.15742393949395  0.30486220782078
 1  7.51774717311731 -1.53272206250625 -1.62240171607161
 1  8.61344347574757  1.10513110791079 -1.32215500080008
 1  7.90355885398540  0.72086727492749  0.55052076047605
 1  10.17674012111211 -1.38372581628163 -0.43463062066207
 1  8.94269651395139 -2.01300011571157  1.76804516531653
 1  10.48620468986899 -1.56967084828483  1.36254814621462
 1  9.49334254585459 -0.41298252065207  2.19957126222622
 1  10.94015765356536  1.22509526942694 -0.74387155875588
 1  10.63862360896089  1.46822569816982  1.08490237053705
 1  12.23161070327033 -0.78706114561456  1.27421110441044
 1  12.54817697169717 -1.07467568816882 -0.40258325582558
 1  13.20389525952595  1.63548309330933 -0.66682558715872
 1  13.04490653545354  2.08685293659366  1.09927571697170
 1  14.90265169096910 -0.30648816481648 -0.22353054425443
 1  14.98748864876488  0.57743813931393  2.41385415841584
 1  14.30731800530053 -0.74928260016002  2.29389688778878
 1  16.09644667776778  0.07006342324232  1.91535801350135
 1  15.69064019891989  2.26189618301830 -0.68293826852685
 1  16.06659069166917  2.47205674117412  0.78771709490949
 1  17.78118943404341  0.26190936153615  0.52451263796380
 1  17.42969049324932  0.40169833903390 -0.93879525692569
 1  18.00386539363937  2.65223177097710 -1.41146413471347
 1  18.07894789088909  2.62851675857586  0.34570124062406
 1  19.74499706090609  0.55905875207521  0.16656000680068
 1  19.55905422342234  1.26801185078508 -2.70811293649365
 1  20.28668295829583 -0.09242104390439 -2.27199133253325
 1  18.61327405440544 -0.13735145354535 -1.94678275297530
 1  20.50646742534254  2.62917249634964  0.43040379397940
 1  21.70087782808281  2.14217079977998 -0.82956567156716
 1  20.83122977587758  3.10885837303730 -1.48269306560656
 1 -0.47364298939894 -4.33081583098310  2.47971631963196
 1 -2.02464214521452 -5.25187246094610  3.05913655025503
 1 -1.71027504080408 -3.37255573267327  4.01407556075608
 8 -11.67385575987599  3.75143994319432 -0.91246306000600
 1 -12.80070058155816  1.86246748684868 -1.15867647264727

