%nproc=4
%Mem=2GB
# td=(NStates=1) iop(3/107=0140000000,3/108=0140000000) iop(3/107=0140000000,3/108=0140000000) CAM-B3LYP/6-31G(d,p) 

TD

0 1
12 -6.93177574967497  0.66276542064206  0.19439705920592
 6 -4.71881898839884 -2.10720914271427  0.54283456045605
 6 -4.23448526392639  2.74396602970297  1.05984886648665
 6 -8.69739244394439  3.23497752185219 -0.52117161886189
 6 -9.43581167876788 -1.66528955855586 -0.49503956265627
 7 -4.78934400630063  0.33123252095210  0.67426645874587
 6 -4.08505577117712 -0.91073077987799  0.70327088248825
 6 -2.58523194179418 -0.76542830203020  1.00599266156616
 6 -2.63828379417942  0.85086523532353  1.30014217671767
 6 -3.92142840574057  1.44183426862686  0.89672444714471
 6 -2.03281956765677  0.98041983788379  2.69663422622262
 6 -1.49713846224622 -1.21690425382538 -0.20354902860286
 6 -0.06772489078908 -1.32449415601560  0.32471154465447
 6  0.88908998819882 -1.44079131603160 -0.87589576337634
 8  0.91653172127213 -1.14381699419942 -2.16571756195620
 8  1.84732501910191 -2.31969226782678 -0.41547647014701
 7 -6.54726646884688  2.60737110711071  0.29608335623562
 6 -5.44090465136514  3.28264690789079  0.61650794699470
 6 -5.58743295849585  4.67483716851685  0.57458232683268
 6 -6.76858757215722  4.92918900940094  0.19101568486849
 6 -7.50437214111411  3.58900770917092 -0.00019518811881
 6 -4.57836275657566  5.54955238573857  0.91923959195920
 6 -7.57151871317132  6.12769969006901  0.08456798049805
 8 -7.42047596379638  7.31577319391939  0.47389524632463
 7 -8.77901145464546  0.87300816001600 -0.22464511361136
 6 -9.30118379077908  1.97660239553955 -0.53390444274427
 6 -10.66570320062006  1.77453732483248 -0.79873565476548
 6 -11.00763512101210  0.36864776917692 -0.72752360786079
 6 -9.75870753405341 -0.28265642884288 -0.34204628132813
 6 -11.59405618091809  2.78883507660766 -1.29407405820582
 6 -12.29187230773077 -0.26729029132913 -1.10478861256126
 6 -12.51918878097810 -0.60336250145014 -2.64554734943494
 7 -7.10821730463046 -1.39955251655165 -0.04640728522852
 6 -8.17244990659066 -2.22226222292229 -0.35023822182218
 6 -7.76308389348935 -3.51985930833083 -0.49082009210921
 6 -6.40305592679268 -3.57385654655466 -0.07981624222422
 6 -6.01923821252125 -2.29078789328933  0.08955513981398
 6 -8.64312283578358 -4.77477485528553 -0.48039085498550
 6 -5.24209041354135 -4.38887468556856  0.25268329402940
 8 -5.21630337903790 -5.65125566386639  0.09889039563956
 6 -4.02685641104110 -3.43497405660566  0.41290593779378
 6 -3.45433894479448 -3.79022519801980  1.85783549654966
 8 -3.95328056815682 -3.95413214801480  3.00562923272327
 8 -2.02102377727773 -3.62738904420442  1.81136107530753
 6 -1.30754927702770 -4.07245233533353  3.00353477867787
 6  2.84696658945895 -2.52955813271327 -1.29649089318932
 6  3.90741450885089 -1.55094209530953 -0.99052458475848
 6  5.09660041544154 -1.32815968736874 -1.67686388798880
 6  5.37963194699470 -2.13518665336534 -3.00420740294029
 6  6.22889671427143 -0.44135178807881 -1.25834239273927
 6  7.44783347734773 -1.09396517861786 -0.75186192349235
 6  8.39759231953195  0.08687432203220 -0.49303778427843
 6  9.76331942134214 -0.50157707800780 -0.08873717941794
 6  9.57968548484848 -1.11567038173817  1.41769613841384
 6  10.87793012301230  0.58756361056106  0.01054589298930
 6  12.30101537203720 -0.06122481528153 -0.17483917271727
 6  13.45236677927793  1.03125039973997  0.21447434583458
 6  14.90062639783979  0.50949422752275  0.43665832793279
 6  15.05264025212521 -0.42823510401040  1.67834775877588
 6  15.90736036443644  1.76336123812381  0.10861406670667
 6  17.25521499959996  1.12438766316632 -0.03938081198120
 6  18.38806835423543  2.17124431563156 -0.15013516031603
 6  19.75115731683168  1.66594508930893 -0.20493057675768
 6  19.80050985228523  1.00239566986699 -1.49611540274027
 6  20.79871704060406  2.76975839383938 -0.11848694459446
 1 -3.17217785608561  3.12116336733673  0.97938734043404
 1 -9.68343232573257  4.25713479857986 -1.00695432933293
 1 -10.24138663026302 -2.50523092239224 -0.64965779167917
 1 -2.34723724052405 -1.34948256605661  1.81462151045104
 1 -2.05551489008901  1.44071454765476  0.56689314271427
 1 -1.23456484018402  0.69607792219222  2.92654336543654
 1 -2.00620879477948  2.14448302470247  2.98244436223622
 1 -2.77778011051105  0.92540042534254  3.37042291139114
 1 -1.95860488078808 -1.98426969997000 -0.69863765056506
 1 -1.64592976197620 -0.75380685358536 -1.19365915671567
 1  0.52883088138814 -0.32076350965096  0.99339520472047
 1  0.28501478167817 -2.26150248404840  0.97002723482348
 1 -3.91712624302430  5.25480330823082 -0.08564360666067
 1 -4.67323760436044  6.52672534843484  0.83298020412041
 1 -4.23218424662466  5.23039200020002  1.65425319761976
 1 -8.91028404250425  5.96506161536154  0.02668629282928
 1 -12.18259781338134 -1.17855872337234 -0.69486391359136
 1 -13.09397561256126  0.20517691749175 -0.92831046744675
 1 -13.61384920802080 -1.04888700410041 -2.81413853095310
 1 -12.64258122192219  0.30575799729973 -3.36176834633463
 1 -11.50456728112811 -1.20663398039804 -2.90214682208221
 1 -9.24436361966197 -4.74759131473147 -1.44988721672167
 1 -7.82663787838784 -5.80212022462246 -0.51464111601160
 1 -9.39482676267627 -4.54358631983198  0.36260086958696
 1 -3.04701428282828 -3.56144986988699 -0.17905621242124
 1  3.24350596599660 -3.58621589538954 -1.31799751685168
 1  2.58555284408441 -2.77949386438644 -2.37327756305631
 1  3.96972430013001 -1.07766051445144  0.13400700230023
 1  4.44166722372237 -2.15469894239424 -3.72885300030003
 1  6.26652023042304 -1.92703137853785 -3.72802402630263
 1  5.87108093549355 -3.32015462976298 -2.85062924672467
 1  6.53097351925192  0.16729206660666 -2.25977859505951
 1  5.90695580498050  0.09124467226723 -0.53396766016602
 1  7.41187236613661 -1.86121431853185 -0.02858113651365
 1  7.98157355575558 -1.78751754205420 -1.61841131703170
 1  8.63568569997000  0.80399099389939 -1.37997078237824
 1  8.00755925402540  0.99342453065307  0.06246195459546
 1  10.16203865096510 -1.27651509520952 -0.78279543714371
 1  8.69653189748975 -2.04142295799580  1.85909427022702
 1  10.39464553395340 -1.82074595579558  1.82415430683068
 1  9.82995620722072 -0.27827905030503  2.26502780788079
 1  10.93518715651565  1.34657741764176 -0.84244141574157
 1  10.86390613721372  1.17952682828283  0.70203408370837
 1  12.35535307750775 -1.41080351985199  0.34550823412341
 1  12.34613676767677 -0.38789701030103 -1.19672266976698
 1  13.45841071107111  2.04353389838984 -0.44014291889189
 1  12.94817686248625  1.29961421272127  1.30615640504050
 1  14.90183160896090 -0.02989050505051 -0.37733592479248
 1  15.00051995189519  0.13201359685969  2.54623739673967
 1  14.33762103560356 -1.41187885978598  1.66610410851085
 1  15.77874490759076 -1.17409099219922  1.54847132483248
 1  15.65690682558256  2.53532352575258 -0.65131510621062
 1  15.94106813941394  2.38657819331933  1.23150147334733
 1  17.42625394049405  0.73788695929593  0.80064025072507
 1  17.20486801100110  0.44876304550455 -0.74341571897190
 1  18.31381638873887  2.85582213001300 -0.67014000230023
 1  18.44182417851786  2.69931383828383  0.67379404990499
 1  19.75586814801480  0.90408325452545  0.74208755955596
 1  19.55033335133513  1.66097114671467 -2.33577570277028
 1  20.75716000600060  0.85361355955596 -2.00321445484548
 1  19.04248697569757  0.02494477607761 -1.83689176387639
 1  20.85586236483648  3.30626020512051  0.77606836043604
 1  21.81035877617762  2.43938052075208 -0.18985170017002
 1  20.65149180208020  3.57699518671867 -0.83299809610961
 1 -0.31573719881988 -3.74145689508951  2.64180252825283
 1 -1.67444712571257 -4.87599487318732  3.05996663326333
 1 -1.33368738203820 -3.57003548064806  3.68466261946195
 8 -11.43037141144114  4.00645544474447 -1.38601041474147
 1 -12.27156766826683  2.42559379947995 -1.59008961396140

