%nproc=4
%Mem=2GB
# td=(NStates=1) iop(3/107=0140000000,3/108=0140000000) iop(3/107=0140000000,3/108=0140000000) CAM-B3LYP/6-31G(d,p) 

TD

0 1
12 -6.68799137123712  0.59898904300430  0.00315793529353
 6 -4.62572967946795 -2.28651707350735  0.58251852885289
 6 -4.12845466086609  2.62604423752375  0.94049693129313
 6 -8.67349005370537  3.30485450955095 -0.14568407010701
 6 -9.32312040964097 -1.50002303190319 -0.73988404710471
 7 -4.67289236113611  0.20464986268627  0.60630966306631
 6 -4.06468373397340 -0.92994270107011  0.84396495189519
 6 -2.45032845144514 -0.71000275947595  1.27993005530553
 6 -2.38783874967497  0.73393354215422  1.37922008450845
 6 -3.68485474837484  1.26815690089009  0.91942671737174
 6 -2.32939922562256  1.17819961586159  2.87904246704670
 6 -1.69946869526953 -1.28582114551455  0.12184351065107
 6 -0.08457657595760 -1.26611831843184  0.58316739023902
 6  0.79255033423342 -1.49893713061306 -0.59551772557256
 8  0.72203227132713 -1.25978859135914 -1.81447243744374
 8  1.78302858945895 -2.29459975857586 -0.10985590809081
 7 -6.39362110431043  2.67591796179618  0.23275702360236
 6 -5.21670223112311  3.22800144334433  0.48073436963696
 6 -5.55695991119112  4.58437812261226  0.70108497709771
 6 -6.83865457885789  4.95500159065907  0.26846342964296
 6 -7.33237494139414  3.60751956035604  0.12315714711471
 6 -4.33172809310931  5.57397482798280  0.92999066706671
 6 -7.55242680398040  6.08389530963096  0.44817434113411
 8 -6.99170308650865  7.23470508710871  0.55506336313631
 7 -8.70932448594859  0.96961782098210 -0.38252090119012
 6 -9.24211788418842  2.12230696599660 -0.56487754005401
 6 -10.65429205950595  1.65920579167917 -0.97487326852685
 6 -10.81416577407741  0.30471137553755 -0.96043689918992
 6 -9.52286394969497 -0.14864302750275 -0.66717879457946
 6 -11.62329910521052  2.77088328142814 -1.15868051885189
 6 -12.04763788428843 -0.45959952225223 -1.43654178787879
 6 -12.06837369946995 -0.42919508470847 -2.74827762246225
 7 -6.85307179007901 -1.36023858515852 -0.05953859835984
 6 -8.04672733433343 -2.12937293399340 -0.58129132713271
 6 -7.64825241034103 -3.53165048744874 -0.64655566566657
 6 -6.52119774097410 -3.67188634953495 -0.03861212181218
 6 -6.02944923362336 -2.20399921442144  0.09783596789679
 6 -8.65561408490849 -4.63172054985499 -0.87361017691769
 6 -5.39053525802580 -4.66050184828483  0.11372939863986
 8 -5.30848259695970 -5.70480101840184 -0.03226271967197
 6 -4.12656638203820 -3.66711727092709  0.54310895809581
 6 -3.57637114801480 -4.12124830033003  1.83640335333533
 8 -4.12395763586359 -4.26861359615962  2.84119278907891
 8 -2.20251192609261 -4.02871917721772  1.76407634683468
 6 -1.37136565866587 -4.27273236333633  3.22881730693069
 6  2.80117201000100 -2.62822799969997 -1.06019726382638
 6  3.94954872227223 -1.45832283338334 -0.98418395069507
 6  4.93734448984898 -1.19024589598960 -1.75792199379938
 6  5.33977796159616 -2.00384351905190 -2.94360134233423
 6  5.99142296689669 -0.22639029192919 -1.34996155465547
 6  7.35830452445244 -0.81516729882988 -0.86970370767077
 6  8.32744530483048  0.30225586018602 -0.69322780328033
 6  9.63945703510351 -0.20563748404841 -0.17039534523452
 6  9.45617313361336 -0.70422923762376  1.22279664846485
 6  10.85716804680468  0.72752760696070 -0.07335249684968
 6  12.17721299179918  0.27789909710971  0.18266657785779
 6  13.16315785838584  1.31823909860986  0.28604150255026
 6  14.67444377957796  0.65810908900890  0.48231289338934
 6  14.86475146324632  0.30741846134613  2.12397232123212
 6  15.67060668906891  1.73783868586859  0.01224442974297
 6  17.20684016211621  1.01978720312031  0.05022814891489
 6  18.32467201460146  2.01814900610061 -0.42667281408141
 6  19.67187938903890  1.38642713751375 -0.56968705240524
 6  19.80210001130113  0.49919534983498 -1.67533332453245
 6  20.80732790169017  2.50930234823482 -0.41254635053505
 1 -3.23942458075808  3.56175742674267  1.23414281598160
 1 -9.49289327182718  4.21677076217622 -0.42164579847985
 1 -10.02011450305030 -2.21420181948195 -0.79265209110911
 1 -2.33526604340434 -1.13769138693869  2.15167521582158
 1 -1.69704904350435  1.31074155035504  0.94176062946295
 1 -1.34429581328133  0.94023233763376  3.27506821792179
 1 -2.63730190409041  2.31243982038204  3.13081919971997
 1 -3.26549888238824  0.70518840414041  3.41585745484549
 1 -1.94894391469147 -2.62575384838484 -0.23210099689969
 1 -2.02097726672667 -0.86999847274728 -1.04747453825383
 1  0.25729372767277 -0.12160359365937  0.87694355955596
 1  0.38564484468447 -2.08242457625763  1.28557878997900
 1 -3.50891542194219  5.60070789868987  0.12178713641364
 1 -5.05080536113611  6.42718539443944  0.94946185228523
 1 -3.92950397859786  5.40523948494850  2.19223699599960
 1 -8.84699771387139  5.94837994719472  0.32445606980698
 1 -12.14853440704070 -1.43991485898590 -0.91273570077008
 1 -13.00133634863486 -0.08054165436544 -0.94467210361036
 1 -13.13899172227223 -1.02274438983898 -3.11535865296530
 1 -12.21983894769477  0.51537895939594 -3.42733490299030
 1 -11.39305613001300 -1.08205152215222 -3.33678028542854
 1 -8.95683486678668 -4.65941249684968 -2.15546777477748
 1 -7.99556477107711 -5.79499951255126 -0.56744639653965
 1 -9.54390167016702 -5.07544950615062 -0.18625401590159
 1 -3.36328590999100 -3.96663038793879 -0.31244955175518
 1  3.25276689208921 -3.93793106690669 -1.00285600270027
 1  2.62543683248325 -2.53893980898090 -2.28386862216222
 1  4.04813214091409 -0.95806855525553 -0.21440783918392
 1  4.54610766776678 -1.50565403790379 -3.82337245224522
 1  6.63238681708171 -2.06236491189119 -3.47221844574457
 1  4.64613844124413 -3.31613422772277 -2.65104928872887
 1  5.95247566946695  0.64431976937694 -2.02667528472847
 1  5.69250435983598  0.30896644444444 -0.48077234063406
 1  7.15444662356236 -1.52178037513751  0.28839056065606
 1  7.78302370077008 -1.34666345664566 -1.52884236013601
 1  8.42472460386039  0.95821641644164 -1.37350013531353
 1  8.12612111021102  1.11239642784278  0.09332504090409
 1  9.75330777787779 -0.86477392109211 -0.64839199679968
 1  8.71705394969497 -1.70796961266127  1.27503586438644
 1  10.26741281068107 -0.85966984818482  1.79079097049705
 1  9.07682089368937  0.29940871847185  1.91976328142814
 1  10.74764840264026  1.23718647854786 -0.87139431103110
 1  10.86711645824582  1.37039591519152  0.53121700200020
 1  12.09562710491049 -0.20923336283629  0.93754743804380
 1  11.96283843784379 -0.42168038863886 -0.38557155465547
 1  13.23703857385739  2.08023756875688 -0.81466037063706
 1  13.26370841564156  2.19675392669267  1.10764655405541
 1  14.69641106690669 -0.37057457345735 -0.03684187538754
 1  15.09719961986199  1.35262565806581  2.67521029402940
 1  14.05139241274127 -0.33067073897390  2.50549804790479
 1  15.73881091419142 -0.15088867196720  2.12263874157416
 1  15.41315245014501  2.59736973037304 -1.50829080378038
 1  15.28225225782578  2.89752928842884  0.74051237443744
 1  17.42024333943394  0.65286845744574  1.02944313101310
 1  17.21502902710271  0.06939510871087 -0.65579695709571
 1  18.01427643474348  2.24245079287929 -1.51010399869987
 1  18.50859085518552  2.76781068796880  0.29644631513151
 1  20.04633719491950  0.49481232743274  0.28688203900390
 1  19.66885520352035  0.88422347194719 -2.85479760496050
 1  20.77074136413641  0.05877407560756 -1.76702083548355
 1  19.26322904990499 -0.48111582998300 -1.56650472517252
 1  20.46961373997400  3.01997157625763  0.46919767336734
 1  21.72162990329033  2.07080366306631 -0.49795251025103
 1  21.12579923282328  3.07954544174417 -1.32750754705471
 1 -0.35597122222222 -4.72450519991999  2.68088643664366
 1 -2.08619830083008 -4.94192146584659  3.73964460106011
 1 -1.34715872917292 -3.23626210331033  3.86823097629763
 8 -11.47431580588059  3.94434923412341 -1.12360417411741
 1 -12.74529504100410  2.68135937603760 -1.53602420742074

