%nproc=4
%Mem=4GB
# td=(NStates=1) iop(3/107=0140000000,3/108=0140000000) iop(3/107=0140000000,3/108=0140000000) CAM-B3LYP/6-31G(d,p) 

TD

0 1
12 -5.67365887248725  1.21719659395940  0.20882948814881
 6 -5.08081846904690 -2.15717418071807 -0.33575044184418
 6 -3.47063585268527  1.11854213901390  2.80670604390439
 6 -6.15765456115612  4.60319358355836  0.71696190499050
 6 -8.05202096919692  1.13355420612061 -2.36721439493949
 7 -4.28619287258726 -0.29512770457046  1.05210654945495
 6 -4.20629415691569 -1.59131283288329  0.63217556715672
 6 -3.18674179867987 -2.32922622542254  1.48456281998200
 6 -2.92319549054905 -1.25419831073107  2.66518307440744
 6 -3.57036446384638 -0.12232486018602  2.14174876007601
 6 -3.55989902930293 -1.74468791019102  3.98859155855586
 6 -1.91300649384938 -2.73591100040004  0.74640994649465
 6 -0.99488113161316 -3.68244582518252  1.42226581458146
 6  0.28911401190119 -3.98605244594459  0.56487468216822
 8  0.38764882918292 -3.64848216181618 -0.56913314751475
 8  1.09636648234823 -4.80725034233423  1.27987259455946
 7 -4.94841565786579  2.58209758665867  1.42419265096510
 6 -3.94815690549055  2.41336875857586  2.41613221652165
 6 -3.63706321002100  3.66576507870787  3.09359991619162
 6 -4.44556510921092  4.64757628592859  2.49762903420342
 6 -5.16551265546555  4.01951004620462  1.51602769506951
 6 -2.68709407250725  3.85401277707771  4.24335852525253
 6 -4.51794832543254  6.00953837433743  2.90618012281228
 8 -3.99670971897190  6.59708759675968  3.82558645854585
 7 -6.95124892479248  2.53308320412041 -0.68745040134013
 6 -6.99155186998700  3.92399201640164 -0.27361905060506
 6 -7.95543072947295  4.57689441424142 -1.14505861536154
 6 -8.39003845714571  3.69244617451745 -2.04457340174017
 6 -7.81747063756376  2.44514052285228 -1.76155210171017
 6 -8.22173516441644  5.96339624902490 -1.13398290709071
 6 -9.45787015031503  3.82961335953595 -3.19423405620562
 6 -8.86947840154015  4.04430257645765 -4.62453885788579
 7 -6.44668308730873 -0.09563458115812 -1.01473656565657
 6 -7.45969549914992 -0.06301236983698 -2.12067627832783
 6 -7.74726223342334 -1.37711941554155 -2.69366188878888
 6 -6.69751930073007 -2.15679525132513 -2.03711987768777
 6 -6.08257667306731 -1.43798736383638 -1.03987011741174
 6 -8.64491994979498 -1.72473259925993 -3.77390428662866
 6 -6.18553222032203 -3.51460704460446 -2.02913646874687
 8 -6.60452484798480 -4.50483818221822 -2.55372163726373
 6 -5.08956751885188 -3.52400045264526 -0.90436275607561
 6 -5.28180565796580 -4.60159560066007  0.16683035483548
 8 -5.83353912551255 -4.57144615271527  1.26559292269227
 8 -4.98468816701670 -5.74996619301930 -0.42143528812881
 6 -5.21018858305831 -6.93114496779678  0.39153098289829
 6  2.36824779797980 -5.07177829802980  0.59230318471847
 6  3.46737127212721 -4.09250941184118  0.96413431323132
 6  4.04693408360836 -3.22189505960596  0.10577421242124
 6  3.63899823872387 -3.00407534883488 -1.33457296179618
 6  5.13832025782578 -2.37966301390139  0.69565336413641
 6  6.48858372967297 -2.60573349854986 -0.00009854245425
 6  7.66844216781678 -1.74920427592759  0.62891858235824
 6  8.97181800310031 -1.98996382998300 -0.08347613011301
 6  9.55087146884689 -3.32008264866487  0.11857840014001
 6  9.97069764886489 -0.88190842824282  0.29361187668767
 6  11.32913021542154 -0.77169677657766 -0.32526129232923
 6  12.24038172677268  0.47057168466847  0.22000884848485
 6  13.51526398219822  0.56634150405041 -0.58545330853085
 6  14.35207350635064 -0.71310071267127 -0.27836198709871
 6  14.26280221982198  1.83318949054905 -0.19929918471847
 6  15.57226141654165  1.96541456965697 -0.99833482848285
 6  16.11072365676567  3.44008876167617 -0.54401501470147
 6  17.49369461856186  3.88996683828383 -1.34430836603660
 6  17.28138072777278  4.00883577527753 -2.80711293549355
 6  18.00034944104410  5.12970823612361 -0.65604506340634
 1 -2.99141486428643  1.19728400380038  3.73533400180018
 1 -6.54042202100210  5.68043342374237  0.79065805750575
 1 -8.64812521972197  1.22664296719672 -3.37852333113311
 1 -3.59087015181518 -3.23100841624162  1.91029909070907
 1 -1.82559968386839 -1.02710037163716  2.55924720082008
 1 -3.18473825292529 -2.67586074727473  4.35901944594460
 1 -3.34782557525752 -0.96101600600060  4.73307533733373
 1 -4.65790830253025 -1.69449853075307  3.97004095459546
 1 -2.23299861356136 -3.30056957425743 -0.23879450325033
 1 -1.55976380878088 -1.70728984528453  0.34661278287829
 1 -0.69998543204320 -3.35278657425743  2.57274149284929
 1 -1.38795351695170 -4.68402553375338  1.66400819881988
 1 -1.66571668546855  3.62685220962096  3.96833274297430
 1 -2.74573556365637  4.85131233723372  4.64888114581458
 1 -3.16918991399140  3.22594359185919  5.17805281128113
 1 -5.26469953385338  6.67579177357736  2.51999732113211
 1 -10.01027016051605  3.02031268836884 -3.23593684538454
 1 -10.09868066596660  4.57012085618562 -2.83942423312331
 1 -9.61201100090009  4.15860427442744 -5.31321652395239
 1 -8.15277478687869  4.86943668906891 -4.58061801680168
 1 -8.32370221922192  2.86002536133613 -4.82463238803880
 1 -8.68107569716972 -1.12458300120012 -4.70553155145514
 1 -8.58690967396740 -2.71547495259526 -3.87452008900890
 1 -9.74607468696870 -1.68939576297630 -3.42584949164916
 1 -4.09467682508251 -3.92325715231523 -1.46811009790979
 1  2.61161229422942 -6.14076201920192  1.05596155305531
 1  2.28607935133513 -5.10639761586159 -0.41086453605361
 1  3.73208533083308 -4.03347262906291  1.99105411301130
 1  2.65114010071007 -3.48850447154715 -1.55724826582658
 1  3.66831144444444 -1.95020858015802 -1.49147161766177
 1  4.38286046004600 -3.30774450365036 -2.09000792669267
 1  4.69339938083808 -1.37746417041704  0.49868175167517
 1  5.41877040434043 -2.58962059445945  1.66588146844684
 1  6.92703022972297 -3.58262145424542  0.08791667566757
 1  6.39538969936994 -2.31237884688469 -1.10519111461146
 1  7.52743167446745 -0.70870419551955  0.43323056855686
 1  7.63891599449945 -1.72246882998300  1.56858124342434
 1  8.60708481778178 -2.03797207240724 -1.20728406650665
 1  9.03847836653665 -4.33443221462146 -0.19756354875488
 1  10.54807414821482 -3.50133433553355 -0.32110222372237
 1  9.82601166256626 -3.58056914841484  1.14731517421742
 1  9.35246439703971 -0.03533780758076  0.15186054985499
 1  9.94319441694169 -0.90127666156616  1.35830537053705
 1  11.87935307660766 -1.66339637153715 -0.28749312251225
 1  11.14041012771277 -0.55045795069507 -1.37910924452445
 1  11.70924195769577  1.29663409260926 -0.14271382658266
 1  12.26090091339134  0.74075526692669  1.32967124732473
 1  13.34585138583858  0.62960739303930 -1.72293453215322
 1  14.41080041834183 -0.88454666736674  0.81888756875688
 1  13.89538510951095 -1.58771778807881 -0.64255057655766
 1  15.31567255565557 -0.38667186538654 -0.70250714321432
 1  13.54764295849585  2.67306192529253 -0.41436322402240
 1  14.39317601790179  1.70560084928493  0.89893710761076
 1  16.14773642944294  1.18439705240524 -0.62093858455846
 1  15.39650523392339  1.60674458725873 -2.07826920662066
 1  15.28255966056606  4.21227660566057 -0.96983898199820
 1  16.41231400150015  3.45223186458646  0.49161906230623
 1  18.22925660706071  2.93413490469047 -1.33330240984098
 1  16.81312203260326  5.01080760966097 -2.84198655845585
 1  18.56672259575958  3.97737725102510 -3.16542114721472
 1  16.69485968616862  3.25167623762376 -3.17725576017602
 1  18.16713276047605  5.21996321382138  0.42164382858286
 1  18.94605212751275  5.56181033323332 -1.08322523692369
 1  17.26401795269527  6.01133063616362 -1.05148921022102
 1 -4.85093039443944 -7.71470090319032 -0.17729126682668
 1 -6.18127255755576 -6.99644673127313  0.55410891839184
 1 -4.69545771437144 -6.85509708530853  1.41195565216522
 8 -7.80197778937894  6.90110661146115 -0.48723650765077
 1 -8.76242453955395  6.38006365126513 -2.02446812961296

