%nproc=4
%Mem=4GB
# td=(NStates=1) iop(3/107=0140000000,3/108=0140000000) iop(3/107=0140000000,3/108=0140000000) CAM-B3LYP/6-31G(d,p) 

TD

0 1
12 -5.63184469106911  1.23522839713971  0.17634623982398
 6 -4.99920030723072 -2.11796025932593 -0.35546241304130
 6 -3.54123291239124  1.22638292309231  2.89065443874387
 6 -6.12739153485349  4.56612987718772  0.50914112291229
 6 -8.00621638873887  1.13784463516352 -2.40507818131813
 7 -4.39499375267527 -0.28627681948195  1.05712705150515
 6 -4.26525005250525 -1.56804050565057  0.65622797239724
 6 -3.30754387888789 -2.34658796159616  1.58209257295730
 6 -3.01503467446745 -1.36209910081008  2.69983653975398
 6 -3.62356978437844  0.00715808810881  2.15189977517752
 6 -3.62117515691569 -1.79415285668567  3.94500720012001
 6 -2.02714790799080 -2.72545995529553  0.82895820132013
 6 -0.96043768726873 -3.57592517311731  1.51673526152615
 6  0.27011211171117 -3.78931277197720  0.73179137383738
 8  0.42679274357436 -3.29350666426643 -0.35517175137514
 8  0.98971581728173 -4.75304492179218  1.28626323362336
 7 -4.87749856615662  2.68221759865987  1.49558979067907
 6 -4.08684077387739  2.46952437413741  2.51471207450745
 6 -3.85389489318932  3.66086458865887  3.30051060726073
 6 -4.47284783748375  4.61894342264226  2.42163143444344
 6 -5.21053715791579  4.03959205440544  1.46309240154015
 6 -2.94705006810681  3.88855623142314  4.49050323972397
 6 -4.67049357995800  6.07005442594259  2.77556706150615
 8 -4.08495854385438  6.49722761076108  3.81009490939094
 7 -6.84453825372537  2.59896979277928 -0.74898655495550
 6 -6.95268798359836  3.99197881508151 -0.36879856855686
 6 -7.93559874627463  4.58905563036304 -1.18656276577658
 6 -8.33474292759276  3.66978390829083 -2.14541348574857
 6 -7.75748463896390  2.40638664746475 -1.82081802830283
 6 -8.38980197109711  5.95727563696370 -1.03918342714271
 6 -9.37731209450945  3.81861225942594 -3.23159779257926
 6 -8.79411086478648  4.20609875607561 -4.57971437543754
 7 -6.24297271627163 -0.10580559825983 -1.17837292929293
 6 -7.25477500710071 -0.03904997359736 -2.08993320402040
 6 -7.55771327852785 -1.32345404900490 -2.72467499009901
 6 -6.62867241604160 -2.16278585038504 -2.00845701140114
 6 -5.91700011541154 -1.48398196329633 -1.09851598199820
 6 -8.42714817261726 -1.66102622862286 -3.83883077927793
 6 -6.16623029012901 -3.61862744664466 -1.89902345744574
 8 -6.49916431193119 -4.57528522692269 -2.51420768586859
 6 -4.99459802190219 -3.58524657725773 -0.87989030883088
 6 -5.26555403280328 -4.70461590269027  0.16897056885689
 8 -5.73579935153515 -4.62848185628563  1.29495585898590
 8 -5.06480617881788 -5.88612980938094 -0.41930507510751
 6 -5.34832239643964 -6.99709156245625  0.40600243004300
 6  2.25194616781678 -5.07683880408041  0.61502545694569
 6  3.32915745074507 -4.06196635753575  0.99535743554355
 6  3.98889828002800 -3.25737860796080  0.14350798579858
 6  3.75090942984298 -3.20942588388839 -1.31799130363036
 6  5.14499092489249 -2.38643369096910  0.59638343714371
 6  6.48826369766977 -2.64121704690469 -0.03913244584458
 6  7.63013833743374 -1.78406776227623  0.47271296179618
 6  9.00911173247325 -1.99970480408041 -0.17872565506551
 6  9.55702208390839 -3.36667730813081  0.17938448074807
 6  10.01682226132613 -0.82469270667067  0.23659617511751
 6  11.35897319971997 -0.82982258915892 -0.44055282148215
 6  12.28372606120612  0.33238786628663 -0.01561471387139
 6  13.67018947474747  0.40151502140214 -0.66158092129213
 6  14.50014831383138 -0.82608201080108 -0.43199735063506
 6  14.27103304290429  1.68392456405641 -0.28388764356436
 6  15.55919010941094  2.08424645284528 -1.11349634463446
 6  16.08324090849085  3.49172392519252 -0.65844645784578
 6  17.40815606470647  3.97369521112111 -1.27733166836684
 6  17.32393498319832  4.09600449214921 -2.72774499869987
 6  17.90450985708571  5.19805507080708 -0.49138859775978
 1 -2.85233095589559  1.23475775117512  3.67456792519252
 1 -6.26572455125513  5.61476685708571  0.71431042274227
 1 -8.79750015721572  1.23541384428443 -3.05842132093209
 1 -3.62955402020202 -3.22532784818482  1.92498055885589
 1 -1.88830595449545 -1.18288595019502  2.81683295939594
 1 -3.24323410251025 -2.70607376857686  4.51782532653265
 1 -3.47976876957696 -1.06451635603560  4.82294432423242
 1 -4.73087559925993 -1.95840492139214  3.91748569906991
 1 -2.19063437713771 -3.06577609490949 -0.28196882068207
 1 -1.39814764716472 -1.68943806010601  0.76922504410441
 1 -0.75035046854685 -3.09572086768677  2.50954517321732
 1 -1.32204692629263 -4.58957608880888  1.69894169216922
 1 -2.05203531733173  3.28082760716072  4.30750666036604
 1 -2.98462945304530  4.93958116411641  4.76094235193519
 1 -3.30270326532653  3.17013801130113  5.30179518551855
 1 -5.37323038693869  6.69010320472047  2.04983030443044
 1 -10.15607474097410  2.96402705980598 -3.35085833753375
 1 -10.13555435333533  4.60216406050605 -2.62172246294629
 1 -9.57862766256626  4.36145455945595 -5.35250045234523
 1 -8.19294880428043  5.13884362976298 -4.71468142314231
 1 -8.02055190419042  3.57033639243924 -4.81633155795580
 1 -8.36668425802580 -0.99159970287029 -4.73706470477048
 1 -8.24637562056206 -2.67418082318232 -4.24542717971797
 1 -9.41223130263026 -1.37406422982298 -3.64996190289029
 1 -4.18162551995200 -4.01822664926493 -1.38723201010101
 1  2.53248438143814 -5.99473741674167  1.11999795669567
 1  1.91477222062206 -5.19636661276128 -0.55381883148315
 1  3.75869799209921 -4.05547482928293  1.87698270587059
 1  2.71672665936594 -3.52239786088609 -1.75080762176218
 1  3.90242485578558 -2.25565912521252 -1.80149261976198
 1  4.45946812081208 -3.90503423262326 -1.72890181608161
 1  4.77896793769377 -1.40926735073507  0.19659154265427
 1  5.45132365966597 -2.22202383478348  1.72857773807381
 1  6.96279380608061 -3.73615680778078  0.13387127112711
 1  6.52240240064006 -2.62696030503050 -1.12379297479748
 1  7.43193212451245 -0.66980030513051  0.49075632113211
 1  7.65854795769577 -2.26357294039404  1.53049743504350
 1  8.70971508080808 -1.93209148434844 -1.22123546164617
 1  9.04400891959196 -4.25271404280428 -0.39071286368637
 1  10.68609795059506 -3.85947014911491  0.06511639813981
 1  9.51395045644565 -3.39605069656966  1.32565300800080
 1  9.31201035163516 -0.08696297009701  0.05423078687869
 1  10.16517661516152 -0.82532906680668  1.21546108610861
 1  11.79285442674267 -1.84455448734873  0.05644127092709
 1  11.32370845754575 -0.87420032493249 -1.48613994759476
 1  11.65381641514151  1.30931536073607 -0.31647120232023
 1  12.42922774607461  0.40350154155416  1.02455073527353
 1  13.61306810751075  0.64910934323432 -1.75996823552355
 1  15.01301063936394 -0.86736494919492  0.64563024302430
 1  13.99741531253125 -1.94123313961396 -0.64010033153315
 1  15.56394738313831 -0.72214541274127 -0.90033692619262
 1  13.44976317051705  2.40442506160616 -0.46111789948995
 1  14.60734743504350  1.75599588878888  1.04616183008301
 1  16.31598325412541  1.41346995969597 -0.91645813651365
 1  15.11997758115812  2.15816972977298 -2.24973635333533
 1  15.31179258385839  4.19501487948795 -0.68322032013201
 1  16.23342611271127  3.52573921532153  0.44156405680568
 1  18.25391907330733  3.14125561676168 -0.93558263786379
 1  16.90380110051005  5.19011554045405 -3.12303466326633
 1  18.15341126462646  4.05397491079108 -3.28616322142214
 1  16.71234143434344  3.19198026802680 -3.01040907550755
 1  18.13290933813381  4.88393961146115  0.43280494469447
 1  18.82462998529853  5.46936108830883 -0.98195510991099
 1  17.22907445834583  5.99752925602560 -0.62462652395240
 1 -5.36268156955696 -7.92373180628063 -0.38047158485849
 1 -6.33957838813881 -6.80715780238024  0.78322182968297
 1 -4.56290445904590 -6.92158373397340  1.27792224882488
 8 -7.88113570517052  6.78514501530153 -0.31530931493149
 1 -9.31091938903890  6.22389803470347 -1.75726140894089

