%nproc=4
%Mem=2GB
# td=(NStates=1) iop(3/107=0140000000,3/108=0140000000) iop(3/107=0140000000,3/108=0140000000) CAM-B3LYP/6-31G(d,p) 

TD

0 1
12 -6.77150972307231  0.64562370647065 -0.01560394089409
 6 -4.58058516501650 -1.96729515131513  0.38515879287929
 6 -4.24497631303130  2.78726035913591  0.90321320292029
 6 -8.94863756845685  3.10488451255126 -0.09078858055806
 6 -9.22844094169417 -1.70693372297230 -0.76291635033503
 7 -4.61091616351635  0.40160955865587  0.52207123922392
 6 -3.92040930653065 -0.72658236503650  0.53318387378738
 6 -2.43319673827383 -0.52891465066507  1.04622668496850
 6 -2.56005597139714  0.95116526532653  1.22949511201120
 6 -3.82425868876888  1.43816390159016  0.86033080778078
 6 -2.03423970967097  1.39435123102310  2.77247180998100
 6 -1.51574032243224 -1.00671323472347 -0.13833250695070
 6 -0.24988310661066 -1.13481518811881  0.25039411291129
 6  0.83324440364036 -1.39617685458546 -0.88459663346335
 8  0.73517358545855 -1.25414802730273 -2.01773276347635
 8  1.95447573417342 -2.11156145474547 -0.21602652515252
 7 -6.47671941414141  2.56520689068907  0.37227097499750
 6 -5.45410597149715  3.25487413061306  0.62360865706571
 6 -5.88253246844684  4.77119680448045  0.66332120072007
 6 -7.31001171457146  4.88820491099110  0.60420700400040
 6 -7.70867257115712  3.45039384778478  0.17819265066507
 6 -4.93991891219122  5.83444087458746  1.13883155115512
 6 -8.15597715901590  6.21814873497350  0.45103462716272
 8 -7.58106202240224  7.21285290189019  0.93406126292629
 7 -8.86071962546255  0.68753961316132 -0.48709135823582
 6 -9.48372204460446  1.79201393669367 -0.50560161246125
 6 -10.80143677397740  1.49963983508351 -0.85545132633263
 6 -10.89921427892789  0.21402230663066 -1.17389824532453
 6 -9.68619028232823 -0.29395755895590 -0.81218329502950
 6 -11.86690346564656  2.61503769686969 -1.05639028982898
 6 -12.09503262376237 -0.52418598089809 -1.42123025672567
 6 -12.01470833293329 -0.98551071627163 -2.83471626632663
 7 -6.94892137503750 -1.39189175047505 -0.08744138863886
 6 -8.04877753935394 -2.25856585328533 -0.29490268826883
 6 -7.47791537663766 -3.61287861026103 -0.48008901900190
 6 -6.21483710491049 -3.65965512641264 -0.20144840544054
 6 -5.84151043974397 -2.13513232773277  0.02118830313031
 6 -8.28579710321032 -4.74698207600760 -0.66059887578758
 6 -5.05439164366437 -4.45162096019602  0.00596862256226
 8 -4.77218896759676 -5.69407994629463 -0.00280977437744
 6 -3.92558628402840 -3.43705426462646  0.36137078427843
 6 -3.40191370227023 -3.76754292979298  1.71739145214521
 8 -3.95092033213321 -3.96517325212521  2.75745441524152
 8 -1.95296697159716 -3.45444174947495  1.98497843704370
 6 -1.27501602370237 -3.59266435653565  3.43505793099310
 6  3.01934382718272 -2.52136731363136 -1.06343758785879
 6  4.09287305470547 -1.56513351445145 -0.77929346164616
 6  5.02418317371737 -1.17819469086909 -1.78542474407441
 6  5.09813379717972 -1.76031916661666 -3.18621560376038
 6  6.12333615821582 -0.04587224012401 -1.38624518301830
 6  7.39464815881588 -0.58241402350235 -0.96100283758376
 6  8.59273183348335  0.30201583618362 -0.81103958445845
 6  9.73413650305030 -0.38788570887089 -0.03613191889189
 6  9.44175169146915 -0.86236505120512  1.20604497329733
 6  10.87127945794579  0.74024887908791  0.14243908230823
 6  12.14490976147615  0.06853816101610  0.35783409460946
 6  13.34316585918592  1.11391866656666  0.36616951535154
 6  14.76142247744774  0.44042732083208  0.57526218831883
 6  14.88447343544354 -0.15731801230123  2.02054197819782
 6  15.81757138553855  1.51176607860786  0.04353755905591
 6  17.29186866496650  0.74435966036604 -0.03823069696970
 6  18.32555210261026  1.63428061926193 -0.50453059985999
 6  19.78938113921392  1.08480697549755 -0.40551063476348
 6  19.84497429872987  0.25690112041204 -1.71756754795480
 6  20.91199836873687  2.19448086608661 -0.43677877377738
 1 -3.23190382868287  3.74046529752975  1.14704410611061
 1 -9.77641162366237  3.71453053815382  0.10279664576458
 1 -10.20825331693169 -2.60839123842384 -1.16810963686369
 1 -2.40848336513651 -1.09309692749275  2.01831187948795
 1 -1.68240757935794  1.31997247344734  0.47757421082108
 1 -1.15919730343034  0.92134044844484  3.21735244634464
 1 -1.81948012191219  2.58281685808581  2.48195431323132
 1 -2.88158049054905  0.88502638793879  3.45956182528253
 1 -2.13164218451845 -2.09927120012001 -0.41710949774977
 1 -1.58096326532653 -0.43099457235724 -1.22470226102610
 1  0.11180917921792 -0.34279571287129  1.19310517571757
 1 -0.06671039083908 -2.17744407820782  0.98893912601260
 1 -4.08437296769677  5.76647447534754  0.62514747244725
 1 -5.50126040664066  6.97721039693969  1.35721262736274
 1 -4.34901592979298  5.73341230223022  2.19971774407441
 1 -9.26506952105211  6.16894200340034  0.02569619381938
 1 -12.38791834543454 -1.17727859535954 -0.62122654985499
 1 -12.96652286728673  0.37045344514451 -1.44851248764876
 1 -12.98150597369737 -0.91034314971497 -2.93489060616062
 1 -11.68810577437744 -0.20608318681868 -3.26580875037504
 1 -11.23437026142614 -1.81842515951595 -3.19733634103410
 1 -8.54237342064206 -4.88478503410341 -1.56566879487949
 1 -8.05190040464046 -5.76058607120712 -0.54697434933493
 1 -9.12472975297530 -4.37322928412841  0.10105471497150
 1 -2.99264884628463 -3.49988371327133 -0.76765507230723
 1  3.19318093349335 -3.42427970177018 -0.34091980908091
 1  2.62714700350035 -2.55471138613861 -2.07679791509151
 1  3.92590991869187 -0.85348809720972 -0.02357875627563
 1  3.90352340934093 -1.93250672317232 -3.85792590759076
 1  5.86427000540054 -1.17127580298030 -3.58740996489649
 1  5.55067889528953 -2.74453706800680 -3.29133331713171
 1  6.20022044394439  0.44963030043004 -2.22531514871487
 1  5.43812892229223  0.61617716551655 -0.50376463986399
 1  7.22579375827583 -1.17339553665367  0.12971469306931
 1  7.60984638303830 -1.64071286158616 -1.64665414131413
 1  8.68800093149315  0.72478307310731 -1.75447823312331
 1  8.40725922402240  1.05703089128913 -0.09227351895190
 1  10.28886133323332 -1.36424386808681 -0.68340549814981
 1  8.67416966126613 -1.62706152185218  0.96813517431743
 1  10.29820588998900 -0.81138501970197  1.78962085348535
 1  8.62157536913691 -0.34630585298530  1.78763006810681
 1  10.94097773557356  1.27788054795480 -0.80803797539754
 1  10.70091983858386  1.38525740134013  0.80949482978298
 1  12.01544908710871 -0.38863130263026  1.35450913421342
 1  12.28633078707871 -0.71128934953495 -0.36388938643864
 1  13.42069693969397  1.82634217921792 -0.70172907750775
 1  13.10935298009801  1.90825507680768  1.39807559695970
 1  14.58965039083908 -0.62644016001600  0.03016482528253
 1  15.38073797369737  0.77356775227523  2.83971674467447
 1  14.38751602510251 -0.79423709560956  2.36312381048105
 1  15.63517055015502 -0.86738032113211  2.37515399309931
 1  15.52785392029203  1.87057705110511 -1.07519749444944
 1  15.86857088968897  2.32391192669267  0.89899822302230
 1  17.63574488958896  0.18751192179218  0.86383657035704
 1  17.56593411761176 -0.42671450225022 -0.88216959435944
 1  18.28629363646365  2.31186773457346 -1.30898388668867
 1  18.07689768586859  2.58853276017602  0.28508517901790
 1  19.90557311851185  0.26775962216222  0.30758410921092
 1  19.48908722672267  0.92637768736874 -2.75571769696970
 1  21.04500879087909 -0.26530833263326 -1.93917805120512
 1  19.10687341434144 -0.75685340374037 -1.34184225892589
 1  20.21312809140914  2.67340691979198  0.48210896449645
 1  22.08699643994400  1.67474405710571  0.12175946094609
 1  21.07636428932893  2.78584607180718 -1.49818461476148
 1  0.02385676057606 -3.48962171157116  3.37777612561256
 1 -1.39292897389739 -4.69736701040104  3.58762939953995
 1 -1.81251526482648 -2.75263374047405  4.29157331053105
 8 -11.67944631893189  3.76152095129513 -0.86822863656366
 1 -12.93156366786679  2.23543478357836 -1.24494509950995

