%nproc=4
%Mem=2GB
# td=(NStates=1) iop(3/107=0140000000,3/108=0140000000) iop(3/107=0140000000,3/108=0140000000) CAM-B3LYP/6-31G(d,p) 

TD

0 1
12 -6.67964053615362  0.58984812891289  0.19159677917792
 6 -4.47156426292629 -2.11479990179018  0.46797707470747
 6 -4.35132694809481  2.79014064716472  0.95375825742574
 6 -8.86645935063506  3.18587261136114 -0.15398490019002
 6 -9.19073717131713 -1.62655568516852 -0.64281434013401
 7 -4.67693276517652  0.46201559925993  0.56175520762076
 6 -4.01026829242924 -0.82694240104010  0.61164171957196
 6 -2.50597401600160 -0.56407816701670  0.88805086738674
 6 -2.41907187298730  0.94998514731473  1.16260842334233
 6 -3.86770303320332  1.44185427062706  0.89067384208421
 6 -1.97207349304930  1.28033982988299  2.70384494729473
 6 -1.61164991339134 -1.06237880128013 -0.16672534623462
 6 -0.13659177747775 -1.36726843344334  0.32937201070107
 6  0.82274335353535 -1.43536077297730 -0.77686586038604
 8  0.59944001210121 -1.04395700820082 -1.96840783098310
 8  1.84430471707171 -2.21588188678868 -0.29489441194119
 7 -6.58981072327233  2.52236260626063  0.46520026792679
 6 -5.46829739063906  3.28688733193319  0.67577387358736
 6 -5.72194640984098  4.88954863966397  0.58808367696770
 6 -7.03877459085909  4.87267335783578  0.22316890019002
 6 -7.53001470537054  3.48590739913991  0.15092992439244
 6 -4.82038695899590  5.80391782228223  0.82243991199120
 6 -7.88355991729173  6.10836775687569  0.03929345304530
 8 -7.36934085028503  7.31503311991199  0.23986184298430
 7 -8.56478003150315  0.74550540974097 -0.37176982608261
 6 -9.27451112351235  1.89486422172217 -0.54682573487349
 6 -10.74518114841484  1.60941081218122 -0.74430021122112
 6 -10.78739309680968  0.16653755815582 -0.81320217571757
 6 -9.44931659495949 -0.23983214641464 -0.55513759045905
 6 -11.87769454475447  2.49502569566957 -0.64370902170217
 6 -12.06668978947895 -0.49672323462346 -1.15878401210121
 6 -12.06859372147215 -0.99066123132313 -2.67084987968797
 7 -6.76076255915592 -1.42099466076608 -0.03215586008601
 6 -7.98773143474347 -2.26107610431043 -0.45371856985699
 6 -7.65894347944795 -3.58129545194519 -0.43860487058706
 6 -6.23898952015201 -3.61533069396940 -0.10234849544954
 6 -5.92232852155215 -2.31526034053405  0.00426661096110
 6 -8.25666418991899 -4.72465984378438 -0.75052786868687
 6 -5.01750795529553 -4.57968376647665  0.15617364306431
 8 -5.00807255595559 -5.69555009330933  0.13798430503050
 6 -3.87842156755676 -3.50463102230223  0.43932858005801
 6 -3.50778428932893 -3.64112028752875  1.90963067606761
 8 -3.81982722282228 -3.99837657245725  2.91082975277528
 8 -2.06181785668567 -3.65734203950395  1.90033997319732
 6 -1.32406092819282 -3.79987507760776  3.15164959015902
 6  2.96413830663066 -2.25296047294729 -1.41045228932893
 6  3.97638140554055 -1.30541754285429 -1.19799533183318
 6  4.98145890129013 -1.02702957435744 -1.95371157275728
 6  5.11615559935994 -1.66630976567657 -3.31383836603660
 6  6.10972479707971 -0.11698935183518 -1.69884644314431
 6  7.40305899989999 -0.64590037213721 -1.28339507680768
 6  8.48853141344134  0.29579521412141 -0.70852933343334
 6  9.59337242664266 -0.27222414271427 -0.13878218391839
 6  9.40665818211821 -1.07460627532753  1.01519588838884
 6  10.82039436943694  0.67873272747275  0.13271811021102
 6  12.28224349484949  0.08366967416742  0.21732004320432
 6  13.29404094669467  1.06485376007601  0.34122702110211
 6  14.62192852805281  0.48500177827783  0.40701536363636
 6  14.71228621672167 -0.38070035053505  1.79297922192219
 6  15.67142677107711  1.48898380038004  0.16703990929093
 6  16.91447092519252  0.86737196159616 -0.12307918181818
 6  18.34171371877188  1.87780497169717 -0.00875102190219
 6  19.60745294639464  1.18573706850685 -0.09232931663166
 6  19.87197699899990  0.39983541384138 -1.40508629982998
 6  20.87163433233323  2.22574399239924  0.25491039513951
 1 -3.37368800710071  3.44821607260726  1.01488088978898
 1 -9.72213619611961  3.85474455955596 -0.21721535543554
 1 -10.31012350395039 -2.09140954025402 -0.61833465936594
 1 -2.46972948974898 -1.05816343414341  1.75133518181818
 1 -1.41027036563656  1.46757723392339  0.34279073247325
 1 -0.62954433813381  1.19339765416542  2.93990470157016
 1 -2.04598277217722  2.57449602600260  2.85530164796480
 1 -2.68458079057906  0.78664654995499  3.31257712681268
 1 -1.94010303060306 -1.82751402440244 -0.74675246204620
 1 -1.43067823682368 -0.08949042194219 -0.68657844864486
 1 -0.01752375407541 -0.75959739303930  1.34607047224723
 1 -0.23296701650165 -2.46938327212721  0.96590682278228
 1 -3.94684921532153  5.72914074197420  0.24027898559856
 1 -5.36931721232123  6.77079975587559  0.77661456755676
 1 -4.27062809100910  5.90048900990099  2.01613938623862
 1 -8.91059407350735  5.92911802100210 -0.30820719651965
 1 -12.27905745934594 -1.55799666716672 -0.50612503970397
 1 -13.12198841384138 -0.12386598679868 -0.85632326872687
 1 -13.33723154625463 -1.59517163256326 -2.68511562866287
 1 -11.98317528132813 -0.14037661616162 -3.58593076257626
 1 -11.23851067546755 -1.61635495249525 -3.27345395279528
 1 -8.41671085438544 -5.06110266586659 -1.67116934493449
 1 -7.80691590619062 -5.73256326892689 -0.21308095999600
 1 -9.34187146714672 -5.03509547074708 -0.38473386388639
 1 -2.94394397579758 -3.75089881478148 -0.21127943474347
 1  3.24789640504050 -3.53011028482848 -1.64228994609461
 1  2.49927421622162 -1.88169408440844 -2.30294052935294
 1  3.81844917261726 -0.74246699509951 -0.18228462686269
 1  4.17788084508451 -1.42184565706571 -3.79211932693269
 1  6.36566014441444 -1.76672534793479 -3.65713693759376
 1  5.08226205360536 -2.93181579587959 -2.99511369516952
 1  6.47561798369837  0.55450078747875 -2.62174479167917
 1  5.86879198859886  0.77739328712871 -1.20030429382938
 1  7.27771895079508 -1.38398659575958 -0.66081435983598
 1  7.86510190859086 -0.88556734703470 -1.98369784568457
 1  8.66667879927993  0.82850344514451 -1.49071185648565
 1  7.96407490559056  0.97150233843384 -0.14260855245525
 1  10.22412485958596 -0.86312375607561 -0.89744690229023
 1  8.54023626792679 -1.69624844054405  0.70444880568057
 1  10.47630369976998 -1.59667354855486  1.33012490389039
 1  9.22026523812381 -0.25585680808081  1.92452375747575
 1  11.18366200400040  1.09289204910491 -1.07632480408041
 1  10.60093984058406  1.79099797539754  0.87512139243924
 1  12.21966950915091 -0.79393183268327  1.10847453075307
 1  12.32495464946495 -0.45242346294629 -0.61810480798080
 1  13.23759862986299  1.99477902290229 -0.39730863546355
 1  13.20550259505950  1.74757900920092  1.24494028342834
 1  14.38484991079108 -0.46618413441344 -0.45662385358536
 1  14.62828272817282  0.59080947644765  2.59752252525253
 1  13.84197147064706 -1.17325499739974  2.05909340744074
 1  15.49497653075307 -1.33152673577358  1.68486496419642
 1  15.30318145304530  2.23254324772477 -0.44955493019302
 1  15.94343837643764  2.27812734823482  1.17732605580558
 1  17.21460277537754  0.11761493209321  0.42379256595659
 1  16.83477100130013  0.31173934313431 -1.12209358675868
 1  17.95564057115712  3.06456300410041 -0.56518950725073
 1  18.39465946204621  2.12416632353235  1.09026569706971
 1  19.60453301450145  0.44411725792579  1.05584893569357
 1  19.91661997999800  1.23057810741074 -2.28469059425943
 1  20.67163145314531 -0.16904870667067 -1.26956108950895
 1  19.45932865986599 -0.54230194859486 -1.50209828452845
 1  20.63362014061406  2.45973555265527  1.27503825742574
 1  21.99066680698070  1.62751933463346  0.13974125912591
 1  21.06867352025202  3.14206169336934 -0.51711650795079
 1 -0.35086071117112 -4.53007575697570  2.85006335433543
 1 -1.69840952195220 -4.50872814651465  3.70698133473347
 1 -1.32015602890289 -2.82131060816082  3.54277843104310
 8 -11.78608698299830  3.79807460666067 -0.54498631233123
 1 -13.08848936043604  1.97316855695570 -0.80505111011101

