%nproc=4
%Mem=2GB
# td=(NStates=1) iop(3/107=0140000000,3/108=0140000000) iop(3/107=0140000000,3/108=0140000000) CAM-B3LYP/6-31G(d,p) 

TD

0 1
12 -6.73326589868987  0.55932507660766  0.10796841634163
 6 -4.59353646014601 -2.09348777057706  0.54857513451345
 6 -4.07929974537454  2.77333896699670  0.95654853645365
 6 -9.09338204290429  3.29326335043504 -0.40424992669267
 6 -9.45976407400740 -1.80834386398640 -0.48402846154615
 7 -4.70589566146615  0.34485388308831  0.70194922702270
 6 -3.93934119971997 -0.82846255305531  0.83214376977698
 6 -2.51465488408841 -0.55898765796580  1.23884594689469
 6 -2.36843680948095  0.82824297309731  1.40573273577358
 6 -3.85336159905991  1.39746983218322  1.02301707640764
 6 -2.17220350605061  1.19297109300930  2.88855341814181
 6 -1.71430017841784 -1.02319488288829 -0.03601227492749
 6 -0.16264438273827 -1.03349505610561  0.23494256775678
 6  0.74256533573357 -1.33060029692969 -0.74708288208821
 8  0.85880594869487 -0.72121473397340 -1.82187317751775
 8  1.82289257585759 -2.05735603420342 -0.27749267176718
 7 -6.59621136333633  2.58116848684868  0.31026477437744
 6 -5.37070763166317  3.29254789798980  0.65758205440544
 6 -5.82748696389639  4.82587227202720  0.58470333893389
 6 -7.08638935233523  4.85376146664666  0.21871845514551
 6 -7.63671537543754  3.51351015941594 -0.10494566316632
 6 -4.68354327462746  5.86117354785478  0.82829049704971
 6 -7.77807936923692  6.29382630273027 -0.00960143644364
 8 -7.37770168636864  7.36719833643364  0.27735559235924
 7 -8.84487804130413  0.73811467066707 -0.32073472257226
 6 -9.57890156255626  1.91068580388039 -0.47794884718472
 6 -11.07225385568557  1.56241611271127 -0.73314909610961
 6 -11.08384274177418  0.14974587898790 -0.84770562606261
 6 -9.72662432573257 -0.24839300250025 -0.51984406110611
 6 -11.78062483778378  2.69879607270727 -1.31175582638264
 6 -12.32026514701470 -0.57067062936294 -1.23497163086309
 6 -12.10894775687569 -1.11078324352435 -2.63637643234323
 7 -7.07673415631563 -1.51254381568157  0.02024938043804
 6 -8.27432009360936 -2.21127112381238 -0.32997619561956
 6 -7.70599818491849 -3.66424374677468 -0.43890490059006
 6 -6.32011763296330 -3.56800596149615 -0.24365262586259
 6 -6.04722101080108 -2.25639445394539  0.13826001030103
 6 -8.67134565806581 -4.61377875567557 -0.60399321522152
 6 -5.25244144864486 -4.51186698479848 -0.01207318161816
 8 -5.02260400910091 -5.67372791109111 -0.14708420182018
 6 -4.01738546394639 -3.49130969016902  0.47600224742474
 6 -3.51177468836884 -3.87471364686469  1.86206591959196
 8 -3.78435367546755 -4.02123885868587  2.98545721552155
 8 -2.16632830773077 -4.01862816811681  1.52718265746575
 6 -1.36192471457146 -4.35463055315532  2.92444686988699
 6  2.92862475527553 -2.07443262016202 -1.37353859795980
 6  3.99848361576158 -1.28952595369537 -0.92632816511651
 6  5.14913566896690 -1.11534840624062 -1.67022322392239
 6  5.29413339713971 -1.68294142884288 -2.87053403560356
 6  6.28872269686969  0.07180952805281 -1.14250080858086
 6  7.56478517251725 -0.61518730083008 -0.51573831113111
 6  8.65760832113211  0.35121075567557 -0.37883636413641
 6  9.88751184058406 -0.26824374467447  0.14382607690769
 6  9.62586010231023 -0.95398421312131  1.46482085088509
 6  11.10295262526253  0.63335819001900  0.19624446284628
 6  12.39412468296830 -0.10244893769377  0.29080739193919
 6  13.52381392399240  1.02158943364336  0.34059695809581
 6  14.70524685988599  0.34523780188019  0.37101176327633
 6  15.00403539163916 -0.49236151665167  1.54782470647065
 6  15.99752938133813  1.32899780178018  0.33873707900790
 6  17.37960743884388  0.76191141554155 -0.11656853075308
 6  18.45083463086309  1.74904209540954 -0.41158130493049
 6  19.85002720382038  1.28668716351635 -0.43448353205321
 6  19.91057085838584  0.47875330563056 -1.77486327752775
 6  20.66860402930293  2.49146056405641 -0.48142323822382
 1 -3.11689232753275  3.43957520852085  1.38466786848685
 1 -9.54507849034903  4.28922800790079 -0.71487512141214
 1 -10.48528101970197 -2.43243364266427 -0.73090591649165
 1 -2.36795931273127 -1.21599921772177  1.96318636693669
 1 -1.56879621822182  1.53975445164516  0.80359681308131
 1 -1.12922430613061  0.68225654005401  2.94891560266027
 1 -2.07641581548155  2.03909248564856  3.01263738153815
 1 -2.76211854435443  0.92780066536654  3.85502137123712
 1 -1.80705972627263 -1.94646591959196 -0.47367515431543
 1 -1.91447661666167 -0.33362483538354 -0.94096388718872
 1  0.02350034833483 -0.26347778107811  0.76393225842584
 1  0.16545282548255 -1.74186051985199  0.89706993909391
 1 -3.72140667106711  5.66301412931293 -0.11935697799780
 1 -4.85075535613561  6.79922259815982  0.86505341144114
 1 -4.06648767696770  5.79216817781778  1.76584435673567
 1 -8.83436645074507  5.80694580378038 -0.44195057085709
 1 -12.41378093169317 -1.32025289278928 -0.46360078727873
 1 -13.08397461246125  0.28527492729273 -1.08335597199720
 1 -13.14888271137114 -1.40534264966497 -3.07875499259926
 1 -11.93328029182918 -0.26134871337134 -3.46396856635664
 1 -11.43003982838284 -1.97267058405841 -2.66742334973497
 1 -9.50038922222222 -4.18670522612261 -1.58778100610061
 1 -8.21138635323532 -5.39767978057806 -0.98711836373637
 1 -9.43600088008801 -5.01582354355436  0.11598620812081
 1 -3.31389097049705 -3.60811453635363 -0.24638294509451
 1  3.37420903630363 -3.35448272207221 -1.04380009710971
 1  2.39061335013501 -2.03115903090309 -2.28940917621762
 1  4.01739906760676 -0.62467521592159 -0.18737513591359
 1  4.75006806380638 -1.02383585608561 -3.57250736573657
 1  6.51745532393239 -1.62708138353835 -3.26044726862686
 1  4.84023785118512 -3.09034164846485 -2.62850703450345
 1  6.43497391929193  0.55081041844184 -2.11325394259426
 1  5.66189129852985  0.62203775157516 -0.41182544594459
 1  7.07684886378638 -1.25114331143114  0.28455017661766
 1  7.74459985838584 -1.51211000130013 -1.27397687358736
 1  8.91242337373737  0.98436903170317 -1.37640042534253
 1  8.36456495459546  1.23026821502150  0.55408111651165
 1  10.09206165326533 -1.20441788548855 -0.54106126372637
 1  8.65360760506051 -1.73255207090709  1.00769913071307
 1  10.48683475287529 -1.79545342654265  2.14060595199520
 1  8.86982019361936 -0.13167438983898  2.09144044914492
 1  11.13985762356236  1.24833759365937 -0.53711088268827
 1  10.99876962356235  1.57346622222222  0.50804468476848
 1  12.39886742894289 -0.95303774327433  1.16565024832483
 1  12.86287844184418 -0.45758397899790 -0.56277927542754
 1  13.65958082808281  1.50948049304931 -0.74532343694369
 1  13.34490653545354  1.61386563786379  1.18912470187019
 1  14.94031545734573 -0.21614913091309 -0.59355754695470
 1  15.15587548744875 -0.06229583408341  2.52411518451845
 1  14.23037031053105 -1.36171384328433  1.40805830393039
 1  16.03973100620062 -0.76336992009201  1.13402988068807
 1  15.77933906880688  2.12770276367637 -0.19623959865987
 1  16.41052508510851  1.60789032453245  1.46871519471947
 1  17.72283359845985  0.02520569116912  0.72535272197220
 1  17.46031355555555  0.14683285248525 -1.01982335973597
 1  18.29615462256226  2.58246479427943 -1.30848383668367
 1  18.26934693079308  2.44370827772777  0.22126879737974
 1  20.16461902310231  0.45317816401640  0.60573392419242
 1  19.31052937093709  1.26605165476548 -2.33312543774377
 1  21.02955724572457  0.12078027622762 -2.08744287768777
 1  19.63405613261326 -0.55770348874888 -1.80639871457146
 1  20.70221700030003  2.85875545464546  0.36872762636264
 1  22.02395013531353  2.45716229892989 -0.62854556955696
 1  20.22923957685769  3.48715620282028 -0.98192298859886
 1 -0.07564318941894 -4.45670842024202  2.29813816181618
 1 -1.91960164116412 -5.45754302800280  3.35460609720972
 1 -1.25938995229523 -3.59861833893389  3.47033118631863
 8 -11.51665003930393  3.95775057425743 -1.37162897659766
 1 -12.90474098559856  2.39709094919492 -1.31839244424443

