%nproc=4
%Mem=4GB
# td=(NStates=1) iop(3/107=0140000000,3/108=0140000000) iop(3/107=0140000000,3/108=0140000000) CAM-B3LYP/6-31G(d,p) 

TD

0 1
12 -5.65571707830783  1.18597347164716  0.18494709990999
 6 -5.03412379957996 -2.13621208450845 -0.23956082288229
 6 -3.51719050815082  1.13210349514952  2.81646702000200
 6 -6.28340713641364  4.46170943514351  0.69574978377838
 6 -7.75650141724172  1.15734658535854 -2.45326299979998
 7 -4.48393264656466 -0.25308350015002  1.14260559935994
 6 -4.23221674917492 -1.58870257185719  0.81347369696970
 6 -3.25101822632263 -2.32748605140514  1.56352071577158
 6 -3.01623479447945 -1.32037492839284  2.69189574567457
 6 -3.61544897229723 -0.13373600130013  2.25766035123512
 6 -3.64366740614061 -1.67734117551755  4.07858055745575
 6 -1.97407260046005 -2.65351276057606  0.70167547304730
 6 -0.98352999649965 -3.60497807840784  1.40188377637764
 6  0.23239834033403 -3.91249509020902  0.55570376507651
 8  0.47957802210221 -3.39226654025403 -0.59690592479248
 8  1.04248109380938 -4.62458207550755  1.31242584988499
 7 -4.92452326862686  2.57381675857586  1.44434466616662
 6 -4.03259534933493  2.40811823352335  2.52924352765276
 6 -3.77568707240724  3.64179268146815  3.29648020422042
 6 -4.52600315301530  4.60713224152415  2.65944521582158
 6 -5.21943804800480  3.91954004920492  1.51936802910291
 6 -2.91588695179518  3.70791816761676  4.40123431283128
 6 -4.58337486808681  6.02362978347835  2.95655516031603
 8 -4.08930897889789  6.59046693469347  3.91367526742674
 7 -6.87393119301930  2.60987088288829 -0.70843249954995
 6 -6.92216493129313  3.88660827802780 -0.39332102080208
 6 -7.82344753115312  4.63416014081408 -1.26109021852185
 6 -8.26106555985598  3.61538846874687 -2.20448939333933
 6 -7.62491138163816  2.42923893269327 -1.90726667316732
 6 -8.19814280518052  6.00542045144514 -1.26888639743974
 6 -9.24911927522752  3.86446684488449 -3.22771740454045
 6 -8.59102055575558  4.01344949114911 -4.69191559555956
 7 -6.37788620762076 -0.15113013071307 -1.01512660466047
 6 -7.23957348694869 -0.01223729232923 -2.09505371607161
 6 -7.48404591179118 -1.28595029862986 -2.64643716631663
 6 -6.64537408620862 -2.22799237103710 -2.04931109680968
 6 -6.02039045444544 -1.45781934703470 -0.96869299969997
 6 -8.35272072987299 -1.54974510051005 -3.95960285648565
 6 -6.16254992209221 -3.52432801670167 -1.99003255835584
 8 -6.42582697819782 -4.47439513791379 -2.63180944604460
 6 -5.02148071017102 -3.56978503110311 -0.85002732253225
 6 -5.34672214961496 -4.68718415951595  0.18568224002400
 8 -5.67593336493649 -4.51662067016702  1.35631199459946
 8 -5.04566426462646 -5.86956815321532 -0.29519266386639
 6 -5.42364992919292 -7.01258311161116  0.52571440124012
 6  2.33189416261626 -5.00794191439144  0.59624357875788
 6  3.42090662566257 -4.12910307120712  0.95673357315732
 6  3.97424681488149 -3.33386625672567  0.07895153015302
 6  3.67469180808081 -3.27406234753475 -1.36149565406541
 6  5.06955338113811 -2.32610765836584  0.46607040584058
 6  6.55875074637464 -2.61389431463146  0.06062753015302
 6  7.60860618421842 -1.71458081358136  0.60594628512851
 6  9.00008082938294 -1.88591342494249 -0.08946672917292
 6  9.53825020672067 -3.26746738713871 -0.01520497819782
 6  9.89533011211121 -0.84837507490749  0.46914943044304
 6  11.17058436083608 -0.78266787368737 -0.31560032623262
 6  12.15642333093309  0.27394202170217  0.07315416301630
 6  13.54134659045905  0.54661953185319 -0.64175893909391
 6  14.36931523052305 -0.80014941754175 -0.65048919981998
 6  14.30597653725373  1.71504767636764 -0.21865111991199
 6  15.44944913531353  2.11928995719572 -1.10266526152615
 6  16.01532411681168  3.43612836563656 -0.53408402160216
 6  17.36110135923592  3.87152499409941 -1.24558849404940
 6  17.20423301300130  4.01420631233123 -2.80374259845985
 6  17.81284069016901  5.20638590389039 -0.66622608150815
 1 -2.74092981578158  1.18194246964696  3.81139160756076
 1 -6.51550952975297  5.54465984638464  0.62358134983498
 1 -8.41326173337334  1.10309061196120 -3.40948642744274
 1 -3.73979504430443 -3.31659697509751  1.97913597439744
 1 -1.90397752165217 -1.26194385598560  2.79299057515752
 1 -3.21693147224723 -2.71852501370137  4.49093263726373
 1 -3.40485127782778 -0.84753465786579  4.59319134893489
 1 -4.70175268696870 -2.04457353825382  4.00348429892989
 1 -2.46488180188019 -3.01029054635464 -0.22189281308131
 1 -1.49103693609361 -1.68345746204620  0.53959208080808
 1 -0.65693112661266 -3.19800109570957  2.25984020272027
 1 -1.61979670127013 -4.64113124432443  1.72865466346635
 1 -1.95667578137814  3.37852737713771  3.96743265296530
 1 -2.65273626372637  4.76295350135014  4.73984024172417
 1 -3.05096809180918  3.02810380788079  5.30721572757276
 1 -5.27077014091409  6.55393958835884  2.21900722212221
 1 -9.99123825732573  3.01146180328033 -3.27145039673967
 1 -9.96891768966897  4.70400424452445 -3.05544583528353
 1 -9.30553035283528  4.11188960296030 -5.34119932223222
 1 -7.86000550995100  4.86908665406541 -4.81446140114011
 1 -8.10608045704570  2.93992335113511 -5.02160208500850
 1 -7.97009459905991 -0.75363590649065 -4.70652165046505
 1 -8.50733171617162 -2.64579798489849 -4.21773441044104
 1 -9.39302938243824 -1.19114593799380 -3.61985889258926
 1 -3.98585594299430 -3.74101892849285 -1.38095138203820
 1  2.36145727872787 -6.11941988498850  0.86986294319432
 1  2.06474721812181 -5.03713068916892 -0.39861331093109
 1  3.70577269956996 -3.97685696749675  1.92812782038204
 1  2.63655864256426 -3.59293491459146 -1.56616915791579
 1  3.43624823812381 -2.11935549484949 -1.65071754225423
 1  4.21418359235924 -3.59711344054405 -2.19623854975498
 1  4.71316135703570 -1.33485990999100  0.21921380488049
 1  5.17540606790679 -2.31203283568357  1.72522740304030
 1  6.85239276597660 -3.65433862596260  0.43024090809081
 1  6.52610277067707 -2.69886749574958 -1.11660225572557
 1  7.31878080938094 -0.46351967706771  0.57717496299630
 1  7.76124822772277 -2.02882946604660  1.65609999529953
 1  8.76239034833483 -1.70897917311731 -1.13958729682968
 1  8.72310682938294 -4.02040081148115 -0.44314810721072
 1  10.48793813461346 -3.43688789088909 -0.63812392589259
 1  9.95515457685769 -3.64294538603860  0.89935037773777
 1  9.41986113671367  0.30965669186919  0.51865722952295
 1  10.12808290579058 -1.16488302220222  1.49835937593759
 1  11.69410455175518 -1.63342337423742 -0.18967334053405
 1  10.73085917261726 -0.74044694959496 -1.41682301590159
 1  11.56458749224923  1.37848227742774 -0.10919047424743
 1  12.49113393669367  0.28852004340434  1.30401868206821
 1  13.28955575627563  0.69294372667267 -1.80645288398840
 1  14.69958929722972 -1.25680389308931  0.29444512451245
 1  13.70032560356035 -1.59586860316032 -1.18497481898190
 1  15.21514250265026 -0.62281547974797 -1.30200709320932
 1  13.63688188238824  2.71737635673567 -0.03791557925793
 1  14.51899860016002  1.71743203240324  0.93870108400840
 1  16.32204386018602  1.37462607530753 -1.06308279897990
 1  15.17182276567657  2.30655456825683 -2.10915229492949
 1  15.33649505410541  4.23224860286029 -0.55605760386039
 1  16.32258502860286  3.18230487188719  0.54332423282328
 1  17.99790347174718  3.08568005920592 -1.02106118571857
 1  16.42239295969597  4.55597212611261 -3.27438979877988
 1  18.30757668116812  4.22623213651365 -3.07223182828283
 1  17.03356355655566  2.92137320732073 -3.17355539013901
 1  18.21415746294629  5.23785500300030  0.44079574377438
 1  18.64995251755176  5.45287944014401 -1.31438835323532
 1  17.09332088298830  6.11204070717072 -0.68817287858786
 1 -5.03045834723472 -7.87725715881588  0.09269573187319
 1 -6.37572200250025 -6.93194028062806  0.82386589408941
 1 -4.94719288788879 -6.81413298889889  1.54228868546855
 8 -7.78707629922992  6.80947744854485 -0.45674345834583
 1 -9.16400469756976  6.41325697059706 -1.90365604840484

