%nproc=4
%Mem=2GB
# td=(NStates=1) iop(3/107=0140000000,3/108=0140000000) iop(3/107=0140000000,3/108=0140000000) CAM-B3LYP/6-31G(d,p) 

TD

0 1
12 -6.81273384548455  0.52061120522052  0.26027364686469
 6 -4.52419952645265 -2.13322174397440  0.56223650065006
 6 -4.10625244064406  2.59736136923692  0.96717959955996
 6 -8.90979368406841  3.18798282238224 -0.02911241294129
 6 -9.41472957055706 -1.62497552715272 -0.61743180188019
 7 -4.68719379127913  0.23647304500450  0.64372340444044
 6 -3.91650891649165 -0.99450915771577  0.67468802420242
 6 -2.64402782138214 -0.71922368156816  1.13190525282528
 6 -2.57480744654465  0.77319746854685  1.39142130463046
 6 -3.86138240114011  1.22735282048205  1.01607638233823
 6 -2.30092637833783  0.90127192309231  2.75779034183418
 6 -1.60573932233223 -1.14340690409041  0.03132445874587
 6 -0.20962908120812 -1.13123483008301  0.42735180868087
 6  0.79523060226023 -1.25744298119812 -0.74100227402740
 8  0.78807887598760 -0.73017563006301 -1.87514850505050
 8  1.80434072067207 -1.99669996859686 -0.38212313481348
 7 -6.57023876607661  2.57240761076108  0.49965371327133
 6 -5.42835339623962  3.13195183838384  0.88172446864686
 6 -5.57356157135714  4.67078676347635  0.66612148074807
 6 -6.88177889128913  4.81607769826983  0.49490607390739
 6 -7.55876758065807  3.57299610801080  0.17744257565757
 6 -4.57189210951095  6.01313874437444  1.01791945994599
 6 -7.69477103840384  6.16333325342534  0.15018454215422
 8 -7.18929284548455  7.39794141074107  0.25977383418342
 7 -8.63777733123312  0.82401326052605 -0.37443009210921
 6 -9.46396006840684  1.95041977727773 -0.54441549384939
 6 -10.74078070837084  1.68614848594859 -0.95990177137714
 6 -10.91983634113411  0.22418332273227 -1.03777463296330
 6 -9.62411407470747 -0.29957812101210 -0.75508758545855
 6 -11.64571134643464  2.77050324342434 -1.26276092689269
 6 -12.25151827232723 -0.37666122842284 -1.36364449814981
 6 -12.25202206430643 -0.78280044524452 -2.88231102580258
 7 -6.94831131403140 -1.50763332463246 -0.04914755925593
 6 -8.15287794939494 -2.24426442314231 -0.40109330733073
 6 -7.82054964006401 -3.67481480388039 -0.31248225832583
 6 -6.26904252545255 -3.67600676157616 -0.33240150075007
 6 -5.88318460716072 -2.28530734523452  0.04787097139714
 6 -8.71512003550355 -4.77676505430543 -0.56428924482448
 6 -5.13938014251425 -4.51478727682768  0.00941896759676
 8 -4.97528927762776 -5.75941647994799  0.01591209780978
 6 -3.99963368876888 -3.46525708490849  0.59446409360936
 6 -3.39585309620962 -3.87021319681968  1.95934564756476
 8 -3.89318455855586 -4.09128586338634  2.90224889468947
 8 -2.02425410031003 -3.63575988128813  1.92416235543554
 6 -1.35994451655166 -4.13051814191419  3.02240666586659
 6  2.94236612941294 -2.27252242914291 -1.16065730983098
 6  4.03655742314231 -1.27697469856986 -1.09854538683868
 6  5.08551930733073 -1.11998887028703 -1.83696989858986
 6  5.20016400020002 -1.76949008370837 -3.17998498069807
 6  6.20973479807981 -0.11634928782878 -1.63901045954595
 6  7.54235292929293 -0.60549633173317 -0.98242497979798
 6  8.56933949424942  0.36818245284528 -0.70802928342834
 6  9.83351644104410 -0.33475039533953 -0.09471777747775
 6  9.37196471277128 -0.91993080778078  1.17696206500650
 6  10.93766609660966  0.79828468266827 -0.11134629622962
 6  12.16769203970397  0.06235754295430  0.15711402260226
 6  13.30386192879288  1.08988626332633  0.40482338073807
 6  14.78408474367437  0.39813309140914  0.53565822792279
 6  14.90675566366637 -0.09301158165817  1.97339726372637
 6  15.65143477187719  1.50403530553055  0.19287249254925
 6  17.14939441754175  0.84916014041404 -0.10370724462446
 6  18.34064361176118  1.83281047224722 -0.30598074487449
 6  19.72483468456846  1.17032552735274 -0.44203428712871
 6  19.78447824912491  0.53964939523952 -1.78772456365637
 6  20.89005617451745  2.18921033903390 -0.07951304720472
 1 -3.10361099939994  3.13375462646265  1.23665306700670
 1 -9.75218920142014  3.93477256235624 -0.22685631953195
 1 -10.31465395699570 -2.46229662896290 -0.63520634653465
 1 -2.34043656045605 -1.05114273207321  1.88995904420442
 1 -1.81691102970297  0.87840831703170  0.48362481588159
 1 -1.41587297099710  0.50095841024102  3.33176388748875
 1 -2.57307548144814  1.99020759715972  3.18013413121312
 1 -3.01492382488249  0.42364024932493  3.49363523262326
 1 -2.17118613891389 -2.11976324932493 -0.56574436123612
 1 -1.46684185318532 -0.52834430733073 -0.83187297809781
 1  0.01184918321832 -0.06679811311131  0.97490335553555
 1  0.44858113831383 -1.86867320112011  1.36830706280628
 1 -3.52365689608961  5.51313914181418  0.64661961966197
 1 -5.00313059365937  6.87310998689869  0.90183708980898
 1 -4.23910493869387  6.07221618261826  2.21344911721172
 1 -8.68084109820982  5.73850896009601 -0.14793116891689
 1 -12.36512606620662 -1.31360222772277 -0.78483291049105
 1 -13.32290850585058  0.21176757655766 -1.24869250565056
 1 -13.27858568166817 -1.74533664906491 -3.24142125922592
 1 -12.61773873767377  0.17990541204120 -3.81897406690669
 1 -11.27627445184518 -1.30658397539754 -2.79380598799880
 1 -9.13148233153315 -4.79817637323732 -1.72056428442844
 1 -7.98049326392639 -5.67755776837684 -0.78199785168517
 1 -9.72024930493049 -4.78176013721372  0.19969457895790
 1 -3.04159374077408 -3.48907263216322 -0.06769507630763
 1  3.28154977037704 -3.35603287708771 -0.87707342444244
 1  2.28066235503550 -2.36586250125013 -2.33530376567657
 1  4.01886921462146 -0.74171692009201 -0.09185558395840
 1  4.50018307530753 -1.34350782328233 -4.05595571057106
 1  5.91519509790979 -1.74279295469547 -3.65771699559956
 1  5.21076490389039 -2.95109772407241 -2.94299848364836
 1  6.52739316121612  0.53141847924792 -2.64297691489149
 1  5.73706881628163  0.64626017381738 -0.77305156855686
 1  7.10109128802880 -1.29431762886289 -0.22473075147515
 1  7.89543494189419 -0.94909369966997 -1.67557703360336
 1  9.04862699409941  0.80460105490549 -1.57627041234123
 1  8.10736923502350  0.71632682088209  0.04367007540754
 1  10.11019346644664 -1.05055249894990 -0.77329448704870
 1  8.48168041234123 -1.70855967166717  1.32199055985598
 1  10.17911398079808 -1.36164004520452  1.59231112251225
 1  9.21877508910891 -0.13390461286129  1.68791009610961
 1  10.96267990579058  1.06220898079808 -0.96064323592359
 1  11.09632937953795  1.53311218681868  0.56383026332633
 1  12.06820436263626 -0.40128256775678  1.28465214851485
 1  12.65122727672767 -0.60227844844484 -0.23904690219022
 1  13.43307817781778  1.78012755775578 -0.47901680628063
 1  12.98446049084908  1.67496174747475  1.48068385778578
 1  14.82971439723972 -0.64814233023302  0.06153796259626
 1  14.47665756565657  0.63693408890889  2.74159693269327
 1  14.17508478197820 -0.62857052895289  2.11770926902690
 1  15.79051608470847 -0.27615119821982  2.05177165486549
 1  15.60784191909191  1.78540853425343 -0.31045101980198
 1  15.63913794639464  2.28274781028103  1.01328965216522
 1  17.35462677777778  0.33969714031403  0.57400758745875
 1  17.10266779097910  0.08457662686269 -0.94541591899190
 1  18.19705471257126  2.41657820562056 -0.92865585388539
 1  18.50563055915592  2.56660056695670  0.40482715321532
 1  19.67298986018602  0.33751659785979  0.37395074587459
 1  20.07659597759776  1.50447549714971 -2.72739486468647
 1  20.89987427742774 -0.14871667346735 -1.72518665206521
 1  18.79405213221322  0.03189547114711 -2.07989606430643
 1  20.86725350395039  2.79708928802880  0.66336709030903
 1  22.03684142444245  1.98621520422042 -0.06670938593859
 1  20.91531818471847  3.03583107030703 -0.80167496379638
 1 -0.60728635373537 -4.09441219061906  2.51740008800880
 1 -1.64962464346435 -4.99247652135214  3.41998263486349
 1 -1.46494050735073 -3.48807728482848  3.77029118231823
 8 -11.54132250655065  3.93640844004400 -1.13325513921392
 1 -12.74154466596660  2.59954119421942 -1.54801540654065

