%nproc=4
%Mem=4GB
# td=(NStates=1) iop(3/107=0140000000,3/108=0140000000) iop(3/107=0140000000,3/108=0140000000) CAM-B3LYP/6-31G(d,p) 

TD

0 1
12 -5.52649415601560  1.21089596389639  0.15961456665667
 6 -4.99382977017702 -2.10145860916092 -0.42737960476048
 6 -3.40890968006801  1.08299858465847  2.73395876917692
 6 -6.11889068476848  4.45225849004900  0.65341555035504
 6 -7.87136290339034  1.15344619531953 -2.34985265876588
 7 -4.26077033033303 -0.26609480128013  0.99906124492449
 6 -4.29267279477948 -1.56472017361736  0.63715606520652
 6 -3.20991411591159 -2.40206350915092  1.42282664636464
 6 -2.80360353135314 -1.30804369526953  2.57167372347235
 6 -3.46348377577758 -0.07360998869887  2.11116570177018
 6 -3.46912995239524 -1.82352579397940  3.96966966636664
 6 -2.04809000220022 -2.72674008330833  0.61640694619462
 6 -1.12261390489049 -3.63641122172217  1.31108469646965
 6  0.24249935043504 -3.87746158685869  0.54325251995199
 8  0.44165422972297 -3.45946325992599 -0.52745898009801
 8  1.03378022372237 -4.70060967826783  1.27923253055306
 7 -4.95965678197820  2.52463184008401  1.51623185488549
 6 -3.91739382918292  2.40866828852885  2.45867647094709
 6 -3.68641814551455  3.65783428562856  3.20902145834583
 6 -4.49141969466947  4.53236476477648  2.63870314161416
 6 -5.30873697789779  3.86259435463546  1.62750884318432
 6 -2.77338270137014  3.84232160796080  4.25166935633563
 6 -4.64508103870387  6.01131855235523  2.97507701250125
 8 -4.09074912291229  6.55528341634163  3.87737163706371
 7 -6.81062486238624  2.58041793759376 -0.70685234153415
 6 -6.87697041184118  3.87661727892789 -0.39283097179718
 6 -7.89993517991799  4.59591631643164 -1.17238134763476
 6 -8.29680913421342  3.56617354725473 -2.12621156555656
 6 -7.64096298679868  2.35210121892189 -1.75600154665467
 6 -8.24483747464746  5.95560546994700 -1.26613612241224
 6 -9.23523788708871  3.79043944214421 -3.09169380218022
 6 -8.62774422812281  3.99428757495750 -4.42963936793679
 7 -6.23812223122312 -0.10634565226523 -1.12765785778578
 6 -7.22331186078608 -0.06324239283928 -2.08945315601560
 6 -7.57100460766077 -1.24796650025002 -2.67563008560856
 6 -6.67301685048505 -2.16950652245225 -2.11237740344034
 6 -5.96225464086409 -1.44904846994699 -1.08110424082408
 6 -8.45776123392339 -1.47013713971397 -3.81455835203520
 6 -6.24859852695270 -3.53476906080608 -2.09841339643964
 8 -6.59992438793879 -4.49565726412641 -2.70971723682368
 6 -5.11746030813081 -3.53157120972097 -0.91484380418042
 6 -5.37758523592359 -4.51873731483148  0.15841951375138
 8 -5.71254702630263 -4.30603961206121  1.27461382478248
 8 -5.21202090029003 -5.81196239263926 -0.27655079967997
 6 -5.58778634283428 -6.87148900220022  0.58758058785879
 6  2.30726169936994 -5.05282640284028  0.71680563496350
 6  3.41470600560056 -4.15984614551455  1.17001490129013
 6  3.96398578877888 -3.20946381648165  0.32511614661466
 6  3.74151849074907 -3.04104904620462 -1.08060756525653
 6  5.12139856565657 -2.44553960156016  0.87950174897490
 6  6.52828770007001 -2.81101402660266  0.10538200560056
 6  7.69369469306931 -1.96897625312531  0.68391408190819
 6  8.97557837913791 -2.03614844844484 -0.06760454295430
 6  9.54446082778278 -3.45014565496550  0.01868841114111
 6  9.91683226232623 -0.90840107750775  0.39056157165717
 6  11.30244754715472 -0.87367697459746 -0.36175494169417
 6  12.05819350795079  0.37234186168617  0.04435128272827
 6  13.39293174897490  0.61917678757876 -0.64945970917092
 6  14.32727102610261 -0.64076347894789 -0.53776792769277
 6  14.12881882148215  1.86387255885589 -0.24027328212821
 6  15.31525571597160  2.18147617581758 -1.04201919691969
 6  16.08207079147915  3.48345309810981 -0.53805441864186
 6  17.32592784188419  3.95755359695970 -1.31705564076408
 6  17.02624521422142  4.11546643834383 -2.87874009820982
 6  17.95419482558256  5.24215948124812 -0.77966742564256
 1 -2.53095881868187  1.21243551895189  3.50667113551355
 1 -6.24936291509151  5.50841622202220  0.94431342304230
 1 -8.69641004820482  1.09600990389039 -3.12696817561756
 1 -3.72869393419342 -3.31258657405741  2.02769082988299
 1 -1.81018814271427 -1.36352401400140  2.56134741084108
 1 -2.96526630573057 -2.77717087828783  4.23031657565757
 1 -3.22135292799280 -1.07872777717772  4.75070710051005
 1 -4.56634914661466 -1.88943802470247  3.95937988848885
 1 -2.38022333603360 -3.43907342464246 -0.24015463926393
 1 -1.40852868526853 -1.94954407070707  0.25558367996800
 1 -0.85871130463046 -3.21885318091809  2.17375159385939
 1 -1.56764148574858 -4.56047317851785  1.78696049404940
 1 -1.71755186898690  3.64527405180518  4.02881879157916
 1 -2.93647463756376  4.81718892489249  4.61803806150615
 1 -2.96663965896590  3.14208520602060  5.08882388838884
 1 -5.46874993889389  6.60883507790779  2.03178850025002
 1 -9.80349948344834  2.84589524662466 -3.30360361206121
 1 -9.85860665856586  4.59532337643764 -2.96530682138214
 1 -9.46641644144414  4.20503891789179 -5.05800100240024
 1 -8.28475798519852  5.10162990839084 -4.39515947094709
 1 -7.98754860386039  3.25576493529353 -4.85760568536854
 1 -8.57263485308531 -0.60241078397840 -4.68577957625762
 1 -8.22946392939294 -2.49812321742174 -4.38917155415542
 1 -9.49302938243824 -1.66051287468747 -3.37333424012401
 1 -4.01227858525853 -4.10426525312531 -1.24801808870887
 1  2.53910504350435 -6.03759170217022  1.24645060196020
 1  2.26741748514852 -5.00861783788379 -0.33213666326633
 1  3.70359248154815 -4.17210649244924  2.08729373697370
 1  2.65679066576658 -3.33236885798580 -1.31779432043204
 1  4.05770038333833 -1.95193875317532 -1.69981245174517
 1  4.25833800780078 -3.74302803200320 -1.91442036793679
 1  5.11475151605161 -1.32649907390739  0.83192507600760
 1  5.48937746504650 -2.60970260266027  1.97700258055806
 1  6.90042756945695 -4.06426961906191  0.32540042404240
 1  6.50898105850585 -2.57524513351335 -0.92918351385139
 1  7.30730966226623 -0.80336366146615  0.90715796129613
 1  7.61733383628363 -2.14347093019302  1.75459984528453
 1  8.87988209750975 -1.88956723192319 -1.12755609370937
 1  9.09279379807981 -4.18323709510951 -0.68494228662866
 1  10.62896223702370 -3.31979618171817 -0.22994310781078
 1  9.48276733813381 -3.79814090559056  1.12225266796680
 1  9.38372752335234  0.02576830303030  0.09709507330733
 1  10.08447854535454 -0.95710224412441  1.48780832083208
 1  11.80041518281828 -1.67688772067207 -0.02394676787679
 1  11.10373646034603 -0.90974387928793 -1.38254958855886
 1  11.46440747424742  1.28196262546255 -0.18803835903590
 1  12.10822564586459  0.49386057745775  1.18429670987099
 1  13.23598039873987  0.90803523582358 -1.60623286198620
 1  14.82956229452945 -0.71980019271927  0.48950463046305
 1  13.70461603260326 -1.56000501680168 -0.59573589508951
 1  15.28330931933193 -0.65730892909291 -0.99239613211321
 1  13.53224141834183  2.65302992209221 -0.53581536923692
 1  14.35061176147615  1.90305059425943  0.78739595349535
 1  15.95503715951595  1.27911652435243 -0.91473796449645
 1  15.39665524892489  2.18105201800180 -2.11982336203620
 1  15.14538594319432  4.20204558255826 -0.64731672977298
 1  16.42414518461846  3.37260390179018  0.70053995439544
 1  18.08006168756876  3.01665315651565 -1.45599467906791
 1  15.97839856025602  4.81361789068907 -2.80070243004300
 1  17.81523744724473  4.42234174747475 -3.51003560866087
 1  16.67689788998900  3.09327039703970 -3.28774680928093
 1  18.22778882608261  5.28308952645265  0.38128979317932
 1  19.03704122642264  5.17113126532653 -1.10559747414741
 1  17.19100065096510  6.05991549464946 -0.87681174247425
 1 -5.23326862826283 -7.77144657775778  0.11406786908691
 1 -6.67683211351135 -7.00446753335334  0.58286179367937
 1 -5.10773894249425 -6.52269384498450  1.37867232383238
 8 -7.76056364796480  6.79737623842384 -0.49519730373037
 1 -8.97183548064806  6.06996264116412 -1.94541022382238

