%nproc=4
%Mem=4GB
# td=(NStates=1) iop(3/107=0140000000,3/108=0140000000) iop(3/107=0140000000,3/108=0140000000) CAM-B3LYP/6-31G(d,p) 

TD

0 1
12 -5.76892839943994  1.22587746204620  0.25620422562256
 6 -5.09944033123312 -2.21186965026503 -0.16686355315532
 6 -3.38225701480148  1.20787107190719  2.72597797109711
 6 -6.11304009970997  4.60566383058306  0.58805901470147
 6 -8.01425719281928  1.14411526222622 -2.26658433193319
 7 -4.48499275257526 -0.29788798059806  1.06639797859786
 6 -4.28924245174517 -1.60587428902890  0.65598794839484
 6 -3.21196432093209 -2.32788609140914  1.44049841354135
 6 -2.85612878387839 -1.31719461036104  2.59752630873087
 6 -3.60065749314932 -0.05476810451045  2.17924250945095
 6 -3.41451449084908 -1.66237967936794  3.98406110551055
 6 -1.93640883408341 -2.63884129342934  0.53171847734773
 6 -0.92425406890689 -3.39614719531953  1.40276386438644
 6  0.27016211671167 -3.86025986668667  0.56538473317332
 8  0.51973203750375 -3.33438075167517 -0.54136037023702
 8  1.08036488218822 -4.69261887918792  1.21536614391439
 7 -4.81918273457346  2.64277365426543  1.38228846054605
 6 -3.97257934773477  2.40040746244624  2.43644424772477
 6 -3.69884938863886  3.70677918011801  3.19866042224222
 6 -4.36863741644164  4.57892942124212  2.54712398369837
 6 -5.20475657985799  4.00768886408641  1.43214930723072
 6 -2.82245760886089  3.71733910971097  4.40514470387039
 6 -4.66462299289929  5.97713513401340  3.04973447824783
 8 -3.91903195119512  6.47269515751575  3.90924482438244
 7 -6.82412621252125  2.73818371417142 -0.71617327362736
 6 -6.90232294709471  4.08144776197620 -0.38314000270027
 6 -7.98224341074107  4.54015073987399 -1.22873698319832
 6 -8.43057251055105  3.63120004990499 -2.10070901530153
 6 -7.76987587808781  2.44079008780878 -1.76760270677068
 6 -8.30950394129413  5.97604751415142 -1.21042055085509
 6 -9.41769613291329  3.75421581978198 -3.13133776657666
 6 -8.64703615731573  4.33796194239424 -4.45178158215822
 7 -6.37141556055605 -0.23150816851685 -0.98473356535654
 6 -7.34551408100810 -0.09412548114811 -2.03386759745975
 6 -7.60330783798380 -1.35294699829983 -2.70167268986899
 6 -6.68460800960096 -2.21235080688069 -2.10380654635464
 6 -5.94490290569057 -1.47970153525353 -1.12867899829983
 6 -8.53692915071507 -1.53485361136114 -3.86876377257726
 6 -6.23220688778878 -3.64756033993399 -2.03474702980298
 8 -6.62702709820982 -4.53348104650465 -2.76385265036504
 6 -5.13317187928793 -3.64003205580558 -0.83245556535654
 6 -5.38456593399340 -4.70568600970097  0.15824949674968
 8 -5.74800057165717 -4.52855186328633  1.28209457285729
 8 -5.11673137133713 -5.88855005140514 -0.39479262386239
 6 -5.44154171837184 -7.03612546584658  0.45110694049405
 6  2.28223919711971 -5.19353047324732  0.62417637203720
 6  3.48676321132113 -4.21717187808781  0.98632653245325
 6  4.00643003320332 -3.29382225232523  0.19665330033003
 6  3.69880421932193 -3.04254919621962 -1.21012051655166
 6  5.14522094789479 -2.40770581818182  0.64772857165717
 6  6.54926979827983 -2.70912383758376  0.12369383678368
 6  7.59545486908691 -1.86608596409641  0.66506219671967
 6  9.07396821812181 -2.03743857745775  0.06556877437744
 6  9.58712509420942 -3.45378601900190  0.34188073037304
 6  10.05924650375037 -0.85744598199820  0.40603311881188
 6  11.35935323772377 -0.92785239213921 -0.27765653185319
 6  12.16480416901690  0.29762438993899  0.14835168276828
 6  13.56868932473247  0.42087695759576 -0.62129689288929
 6  14.45244354335433 -0.75697510011001 -0.40407455835584
 6  14.26944288388839  1.77883405500550 -0.20483973877388
 6  15.52888707910791  2.15220324852485 -0.97509250425043
 6  16.11356394079408  3.53513826662666 -0.65382599579958
 6  17.27771302040204  3.96039388098810 -1.40587452265227
 6  17.25056764646465  4.14053894559456 -2.88667089128913
 6  17.71210061616161  5.38406367166717 -0.84070352925293
 1 -2.77463318611861  1.07639191459146  3.55657612601260
 1 -6.50569854865487  5.68125350575058  0.70387937963796
 1 -8.79084949214921  1.12734303720372 -3.11528700750075
 1 -3.63100416521652 -3.32318763416342  1.78283634443444
 1 -1.86113323722372 -1.23449111071107  2.86048732483248
 1 -2.98038781788179 -2.59032219341934  4.36072961696170
 1 -3.20299109180918 -0.84863476787679  4.53750578037804
 1 -4.62361487318732 -2.05434451535154  4.18981293179318
 1 -2.29994530823082 -3.34112362966297 -0.44750537433743
 1 -1.32049988238824 -1.79552866916692  0.13339146074607
 1 -0.37675310881088 -2.97589888548855  2.33172739143914
 1 -1.25703042464246 -4.28932606380638  1.63788558655866
 1 -1.73978409220922  3.70896042044204  4.03330924062406
 1 -2.98196918701870  4.73876108210821  4.79110536823682
 1 -2.97591058605861  2.68870986848685  4.87305231123112
 1 -5.60132319621962  6.59695388978898  2.80590591199120
 1 -10.03200233373337  2.92541319841984 -3.17762101380138
 1 -10.35857665556556  4.38387223132313 -2.83514380508051
 1 -9.21303110291029  4.07055546954695 -5.57950315261526
 1 -8.33334284368437  5.36644639003900 -4.38352830783078
 1 -7.81058090709071  3.69905926472647 -4.72883280808081
 1 -8.13159074867487 -0.69388993189319 -4.56701770007001
 1 -8.57601858485849 -2.61450485558556 -4.21620425742574
 1 -9.51422150165017 -1.27234405780578 -3.50462736943694
 1 -4.17901525892589 -4.14617944454445 -1.36042932983298
 1  2.36790792379238 -6.04812275527553  1.10699665656566
 1  1.95293603700370 -5.27463443954395 -0.51591504110411
 1  3.70574269656966 -4.25470475227523  2.00571557915792
 1  2.70814580128013 -3.14002962406241 -1.39975251625163
 1  4.04482909620962 -1.91638519781978 -1.64750722122212
 1  4.28801097509751 -3.86615034423442 -1.90133905980598
 1  5.12152219311931 -1.37543396739674  0.59723160666067
 1  5.06602512981298 -2.47154878727873  1.79078395869587
 1  6.66508403510351 -3.84420761286129  0.49461734573457
 1  6.69534969536954 -2.58233584258426 -0.99936053155315
 1  7.19772870417042 -0.76981030613061  0.47308455395540
 1  7.86109821272127 -2.05875245834583  1.67257164246425
 1  8.84608871817182 -1.85276355155516 -0.97263060116012
 1  9.02660717941794 -4.20510928232823 -0.09443323572357
 1  10.56019536033604 -3.62889709180918 -0.01781189468947
 1  9.67753681508151 -3.75347643914391  1.34932537523752
 1  9.61362051265127  0.14379010521052  0.31986735053505
 1  10.40331042854285 -0.88866540044004  1.56330587058706
 1  11.85463060436044 -1.85266529842984  0.20661628842884
 1  10.97066315301530 -0.97307021192119 -1.23043437703770
 1  11.53578461196120  1.16740116931693  0.13640408520852
 1  12.49996481978198  0.23291448284828  1.17116539673967
 1  13.36966376707671  0.46699113141314 -1.62894513321332
 1  14.68639797809781 -0.86014422712271  0.92758843884388
 1  13.92251782278228 -1.69195821212121 -0.84381070257026
 1  15.44607559595960 -0.75480867906791 -1.00970786328633
 1  13.67725591979198  2.76173079217922 -0.06060784848485
 1  14.63503020332033  1.69509979917992  0.75434264816482
 1  16.12329398519852  1.23172178487849 -0.78017450815082
 1  15.02756834023402  2.02859677247725 -2.11730311001100
 1  15.04924632923292  3.92141751975198 -0.79835183328333
 1  16.18328109820982  3.38656529792979  0.37611751215122
 1  17.98317199859986  3.33494498569857 -1.11784086368637
 1  16.59597031743174  4.77384391329133 -3.33359571937194
 1  18.17691361486149  4.37190670397040 -3.38418302340234
 1  16.72548274847485  3.08856992699270 -3.38279631423142
 1  17.74587063426343  5.32613383088309  0.27522918711871
 1  18.81640916321632  5.62993714591459 -1.12703961836184
 1  16.99934148504850  6.12087159025903 -1.13045710701070
 1 -4.91492679407941 -7.87402683578358  0.05218168046805
 1 -6.40924535483548 -7.24523160976098  0.57357086458646
 1 -4.92330049864986 -6.95916749234924  1.37543199979998
 8 -7.80952854445445  6.88568506930693 -0.63898168216822
 1 -8.96717501460146  6.32564820972097 -1.90470615341534

