%nproc=4
%Mem=2GB
# td=(NStates=1) iop(3/107=0140000000,3/108=0140000000) iop(3/107=0140000000,3/108=0140000000) CAM-B3LYP/6-31G(d,p) 

TD

0 1
12 -6.68087065916592  0.69438858295830  0.02893051255126
 6 -4.60458756525653 -2.11732015381538  0.48774905190519
 6 -4.29184099949995  2.83004463756376  0.93829671127113
 6 -8.94250695539554  3.35845987008701 -0.35429493119312
 6 -9.17685578317832 -1.66946997659766 -0.66239629832983
 7 -4.80255532743274  0.40247964566457  0.59421845394539
 6 -3.93497076267627 -0.76775648244824  0.72274282968297
 6 -2.54563798239824 -0.54042580178018  1.06777884018402
 6 -2.52394236003600  0.92082223102310  1.33620578307831
 6 -3.85939220212021  1.43195328052805  0.92029680438044
 6 -2.06740302600260  1.19767156305631  2.72383694649465
 6 -1.51629037743774 -1.05595815921592 -0.23444211791179
 6 -0.21096921522152 -1.41127283388339  0.25593466696670
 6  0.76400747994799 -1.42625986288629 -0.93916209000900
 8  0.68673874197420 -1.15256786928693 -2.12819380958096
 8  1.66920720732073 -2.31791208980898 -0.54290921342134
 7 -6.66890863306331  2.57925829582958  0.36637038493849
 6 -5.62240280118012  3.36420506370637  0.72940923712371
 6 -5.97962217741774  4.76133581838184  0.83202807140714
 6 -7.22559327272727  4.92258834933493  0.37683426672667
 6 -7.67094879877988  3.60540934933493 -0.05828099669967
 6 -5.09949486978698  5.91756918741874  1.17247491549155
 6 -7.97092865416542  6.18608552865286  0.34397392109211
 8 -7.50678459465947  7.21048266486649  0.62148000480048
 7 -8.66850040354035  0.72161302050205 -0.47119976907691
 6 -9.40526419881988  1.93106784208421 -0.62562361466147
 6 -10.72333896419642  1.61227109820982 -0.93310909210921
 6 -10.83024738223822  0.23308421282128 -1.12052290779078
 6 -9.58843050635063 -0.39288745194519 -0.85182725942594
 6 -11.76791356665666  2.59567576067607 -1.21878652945295
 6 -11.98667178767877 -0.58291185348535 -1.43859199289929
 6 -11.85860272237224 -0.89184134933493 -3.05084787948795
 7 -6.90919740264026 -1.42664522582258 -0.07769041354135
 6 -8.04303696529653 -2.20433042974297 -0.42771596959696
 6 -7.62802038713871 -3.53238056045605 -0.49441045114511
 6 -6.24853047424742 -3.65102426332633 -0.03191145174517
 6 -5.93681997069707 -2.28455727022702  0.06367255155516
 6 -8.31817034053405 -4.67464484228423 -0.97746056195620
 6 -5.00218642314231 -4.51280707880788  0.18378640434043
 8 -5.02802455115512 -5.57149768806881  0.14445495209521
 6 -3.72006573197320 -3.42200275947595  0.63673832103210
 6 -3.56558006890689 -3.65488166366637  2.12444215721572
 8 -4.01824706480648 -3.76925366016602  3.19514818461846
 8 -2.25081675657566 -3.66014231953195  2.05908584778478
 6 -1.68743726582658 -3.95331042114211  3.22096652185219
 6  2.94663655645565 -2.55243041994199 -1.35008625272527
 6  4.07170093749375 -1.51286828792879 -0.92411794409441
 6  5.02375313071307 -1.12303917531753 -1.58244444604460
 6  5.28052203600360 -1.57988112281228 -3.01151813401340
 6  6.15877970257026 -0.21418907180718 -1.09819637813781
 6  7.38124681868187 -1.05078086018602 -0.68605534283428
 6  8.48048060836084  0.00242587718772 -0.19077755825583
 6  9.82433552295230 -0.74325124542454  0.08477017131713
 6  9.61481899819982 -1.67037585228523  1.26656102490249
 6  10.81580391039104  0.39445429962996  0.30141497989799
 6  12.26265153565357 -0.07187588038804  0.28987729892989
 6  13.37987953055305  0.88804607930793  0.43855675407541
 6  14.88640497569757  0.52700597869787  0.36525118721872
 6  15.29004399249925 -0.23253553405341  1.82181210521052
 6  15.83688331673167  1.72610751275127  0.07479068436844
 6  17.33837331543154  1.04283950835083 -0.14098097199720
 6  18.51920146754676  2.18426561776178 -0.32865301210121
 6  19.79090129122912  1.53254174897490 -0.65431551525153
 6  19.78671847314731  0.91226665696570 -2.17326311751175
 6  20.88482565146515  2.58573999199920 -0.47072216811681
 1 -3.60875151345135  3.59893114411441  1.68503790549055
 1 -9.61533551605160  4.14829391449145 -0.29938357225723
 1 -9.85492798439844 -2.49814021332133 -0.66265909180918
 1 -2.05280779757976 -1.12805042284228  1.97736778507851
 1 -1.81466080468047  1.53660413661366  0.87291374477448
 1 -1.14570595429543  1.36636495089509  3.13343405450545
 1 -2.29213738763876  2.18500707710771  2.84617073487349
 1 -2.64885721822182  0.66755464076408  3.52956882598260
 1 -2.05748476877688 -2.01036230923092 -0.91792957975798
 1 -1.68982415141514 -0.24324579747975 -0.91828161896190
 1  0.39632763106311 -0.86008744204420  0.98179404460446
 1 -0.34534825462546 -2.30372670647065  1.15695592769277
 1 -4.24751928232823  6.27110493839384  0.16767172487249
 1 -5.76798707930793  6.89112178807881  1.67549445554555
 1 -4.16696772497250  5.74810377137714  2.07996576887689
 1 -9.07168018211821  6.21870697989799  0.11159478367837
 1 -12.06683623722372 -1.40967183468347 -1.12161658885889
 1 -12.79024523952395 -0.05764936513651 -1.27209484588459
 1 -12.66553437653766 -1.44956707210721 -2.90927804490449
 1 -11.65629259305931  0.23221064256426 -3.60165233473347
 1 -11.31613843824382 -1.63969728672867 -3.33092970037004
 1 -8.71867105040504 -4.52286884248425 -1.80904313231323
 1 -7.68833404800480 -5.73743375597560 -0.93332298419842
 1 -8.91418869886989 -4.93249521072107  0.02500711021102
 1 -2.81545112651265 -3.72319604450445  0.03224491769177
 1  3.02014362976297 -3.68429570337034 -1.27905362246225
 1  2.64215850465047 -2.69300521552155 -2.56760699599960
 1  4.19329665736574 -1.07595034343434  0.15960956255626
 1  4.27268032503250 -1.31977545004500 -3.75878599359936
 1  6.45121870027003 -1.09924860026003 -3.61345256915692
 1  5.35234906230623 -2.65034764906491 -3.14289847364737
 1  6.51086150805081  0.64251958935894 -1.88265088228823
 1  6.05235034443444  0.55027057485749 -0.52797706110611
 1  7.33382456135613 -1.79676787388739  0.48762048364836
 1  7.71040643904390 -1.99842863316332 -1.67964744064406
 1  8.48674080548055  0.75401599639964 -0.95057784308431
 1  8.46342484058406  0.69085427362736  0.87725343374338
 1  9.98138058515852 -1.25922336603660 -0.79606676427643
 1  8.90184242854285 -2.45820463616362  1.43106146694669
 1  10.44284035343534 -2.15098898009801  1.72187407880788
 1  9.32961617321732 -1.32513373577358  2.14313561866187
 1  10.60030366816682  1.26176893679368 -0.42784995659566
 1  10.73330307690769  0.51450032563256  1.32211609190919
 1  12.18449599179918 -0.80484292379238  1.22495617891789
 1  12.41419357335734 -0.83105132573257 -0.44484748224823
 1  13.34596946694670  1.41069061406141 -0.24937384198420
 1  13.30751279607961  1.45691994329433  1.23741953135314
 1  15.13100452625263 -0.59811732773277 -0.41477966916692
 1  15.17673757365737  0.29044944044404  2.57835060806081
 1  14.57530480398040 -1.16850452235223  2.15000249834983
 1  16.34122115521552 -0.90828441154115  1.72607908560856
 1  15.65763689858986  2.49552954635464 -0.68734870957096
 1  15.89587361996200  2.21166070157016  1.03624194739474
 1  17.80213152825283  0.16331950255026  0.63062324902490
 1  16.91422894709471  0.49656782598260 -1.27353873127313
 1  17.94708971607161  3.18015456325632 -1.16883987228723
 1  18.57960795689569  2.64591849874988  0.73922059255926
 1  20.07310987218722  0.73624647084708  0.08637198799880
 1  19.81828014601460  1.70356540614061 -2.86170829602960
 1  20.62398668866886  0.10745894409441 -2.49301343474348
 1  19.03844657165716  0.23346562816282 -2.42714078877888
 1  20.86083286188619  2.41686126522652  0.84761551515151
 1  21.65040278057806  1.84713129582958 -0.89099181418142
 1  20.77336398929893  3.55960344754476 -0.96571136743674
 1 -0.75601122622262 -4.61077382678268  3.19466781478148
 1 -2.25169485048505 -4.59260653435344  4.03111374797480
 1 -1.32221623492349 -2.91599007610761  3.61680583378338
 8 -11.77835620992099  3.90401520072007 -0.91097291099110
 1 -12.51797230873087  2.47521876197620 -1.46420702570257

