%nproc=4
%Mem=2GB
# td=(NStates=1) iop(3/107=0140000000,3/108=0140000000) iop(3/107=0140000000,3/108=0140000000) CAM-B3LYP/6-31G(d,p) 

TD

0 1
12 -6.83237580968097  0.55404454855486  0.13331095059506
 6 -4.66448355485549 -1.97343576537654  0.51309158615862
 6 -4.20430224562456  2.79893152625263  0.88998187978798
 6 -8.87308001270127  3.27822184628463 -0.18349785148515
 6 -9.46818491609161 -1.65563859345935 -0.63743380208021
 7 -4.78877394929493  0.32572196989699  0.44072310441044
 6 -4.02884014961496 -0.88775848264826  0.46768732413241
 6 -2.62864628322832 -0.63849560876088  0.97770983328333
 6 -2.56498646444644  0.87956810561056  1.27308947144714
 6 -3.93226948984899  1.38965905110511  0.92376715141514
 6 -2.33673995969597  1.09696149204920  2.63328789158916
 6 -1.48009675807581 -1.05056762016202 -0.06552522622262
 6 -0.12728084638464 -1.25348705530553  0.52635170867087
 6  0.95653673287329 -1.05975321222122 -0.41544971877188
 8  0.84232430053005 -0.52088470097010 -1.52427341754175
 8  1.94729501610161 -2.03498379697970 -0.16510143264326
 7 -6.62120386258626  2.54021439143914  0.42959670757076
 6 -5.41538209910991  3.31806044924492  0.66365266146615
 6 -5.63173738893889  4.90075976077608  0.69904477307731
 6 -6.95705641904190  4.98569465996600  0.45102168546855
 6 -7.65549725362536  3.55063387178718  0.16035086648665
 6 -4.77264218451845  5.78917634813481  0.98528619661966
 6 -7.79679124042404  6.18259517961796  0.24037356105611
 8 -7.24951886808681  7.20483209980998  0.45601345814581
 7 -8.85052860636064  0.84628548774877 -0.39735238433843
 6 -9.46525019741974  2.00603533883388 -0.63720477277728
 6 -11.06354298459846  1.72752262336234 -0.88742452365237
 6 -11.11092545004500  0.24351525592559 -0.89687054255426
 6 -9.72206386968697 -0.32986114931493 -0.78298037473747
 6 -11.86522329762976  2.75890208330833 -1.15203985478548
 6 -12.26677979847985 -0.54247781008101 -1.35277341104110
 6 -12.33666052815282 -0.96183834903490 -2.84574736943694
 7 -7.08141462436244 -1.37277983928393 -0.05778842334233
 6 -8.18520118171817 -2.24378437513751 -0.53425662366237
 6 -7.75614319941994 -3.66436375877588 -0.63122413251325
 6 -6.36933255445545 -3.68801796269627 -0.24753301390139
 6 -6.01753804250425 -2.17610642514251  0.07497368166817
 6 -8.67295581908191 -4.90243762156216 -0.59837265316532
 6 -5.26241244574457 -4.51528732683268 -0.04939691399140
 8 -5.03190493919392 -5.72815335363536  0.10988149474947
 6 -4.00494421982198 -3.36263682288229  0.37012165936594
 6 -3.31169468036804 -3.88173434893489  1.71234094709471
 8 -3.92669790989099 -4.40294702950295  2.61514018381838
 8 -1.99325100000000 -3.84623092839284  1.59800974017402
 6 -1.36109463156316 -4.01624671477148  2.92597702290229
 6  3.01046293909391 -2.34148932583258 -1.18649989408941
 6  4.21789555695570 -1.53661066216622 -0.70338587088709
 6  5.12169292469247 -1.11756862826283 -1.51621782338234
 6  5.24347833163316 -1.61104423912391 -2.83848083028303
 6  6.31036486108611 -0.13154080698070 -1.28033459195920
 6  7.65311400540054 -0.96650243234323 -0.67124386168617
 6  8.68727128742874  0.14318995359536 -0.29288776927693
 6  9.98108119751975 -0.40879780008001  0.26914860916092
 6  9.68011552785278 -1.10471928662866  1.71496586538654
 6  11.03510584058406  0.67051190539054  0.18887372577258
 6  12.34550982148215 -0.03663235603560  0.53339165036504
 6  13.45203674627463  0.96260353505351  0.22578547694769
 6  15.01010734593459  0.33791706980698  0.38627328942894
 6  15.12312730083008 -0.10712299279928  1.87755767976798
 6  16.06331595999600  1.32014691669167  0.05823902920292
 6  17.40227970607060  0.85090031443144 -0.17319419331933
 6  18.30922046944695  1.85449264046405 -0.63851399819982
 6  19.67067926902690  1.35472396719672 -0.80891097479748
 6  19.66371617291729  0.55439086938694 -1.79361515271527
 6  20.64724189308931  2.41779319731973 -0.59647474337434
 1 -3.59878051635163  3.67772902390239  1.21562096379638
 1 -9.65266924942494  4.09148823392339 -0.55362899679968
 1 -10.27319981158116 -2.39033943324332 -0.63655648154815
 1 -2.39115163196320 -1.16579419721972  1.77122717101710
 1 -2.02249158775878  1.36464694089409  0.40088654205421
 1 -1.38399978367837  0.53630194459446  3.15397610871087
 1 -1.91229940384038  2.26230480688069  2.96051216901690
 1 -3.34750708320832  1.29052693799380  3.33168903800380
 1 -1.89074809510951 -1.91788306130613 -0.28813660046005
 1 -1.41198636763676 -0.51128260116012 -0.77004679547955
 1 -0.38138013971397 -0.52271370467047  1.36590245544554
 1 -0.10537425722572 -2.02094842864287  0.94873510561056
 1 -3.73475800620062  5.80888871677168  0.94225918361836
 1 -5.20648092869287  6.97257993389339  0.66648355445545
 1 -4.52691371957196  5.67898685968597  1.87430520282028
 1 -8.76146916101610  6.07571268046805 -0.26947332313231
 1 -12.31558111171117 -1.55783665116512 -0.83856828402840
 1 -13.41600781578158 -0.17391099129913 -1.02279991639164
 1 -13.22972079517952 -1.69650176557656 -3.16213333043304
 1 -12.36695365916592  0.16282370387039 -3.39110127962796
 1 -11.19331615601560 -1.42767608460846 -2.80734734213421
 1 -9.11666084938494 -4.50422697829783 -1.54702693069307
 1 -8.18130334493449 -5.84881489408941 -0.81390104200420
 1 -9.78595587558756 -5.18107006820682  0.34317892739274
 1 -3.10689027042704 -3.45133885878588 -0.24717302410241
 1  3.02428404380438 -3.60139741354135 -1.09807552465247
 1  2.66283057185719 -2.19806572157216 -2.11805204050405
 1  4.23699102680268 -1.28410115851585  0.11235483708371
 1  4.31590464746475 -1.19894336683668 -3.35412552755276
 1  6.04968854725473 -1.16419509490949 -3.40320154405441
 1  5.12727655505551 -2.50584319861986 -2.62588677247725
 1  6.68767918981898  0.11374671207121 -2.30943356055606
 1  5.77765287468747  0.59682523032303 -0.59913417681768
 1  7.54922610151015 -1.27316551365137  0.54847656925693
 1  7.93658905730573 -1.62364115441544 -1.35181465736574
 1  8.98516064746475  0.85275587038704 -1.10398318361836
 1  8.28255675377538  0.52497768596860  0.68511421982198
 1  10.32750519761976 -1.19915735943594 -0.35578273587359
 1  8.87452969726973 -1.78638745444544  1.50118847964797
 1  10.54472054145415 -1.53219710091009  2.30075196659666
 1  9.01194440604061 -0.30470169256926  2.30120142524252
 1  10.79574321212121  1.07519027892789 -0.84143131473147
 1  10.93927367396740  1.34250312591259  0.54668854915492
 1  12.10953849604960 -0.67146958645865  1.70762444574457
 1  12.49576173017302 -0.92250047064706 -0.27820081758176
 1  13.58574344434444  1.62037158215822 -0.74498340294029
 1  13.28568061286129  1.73001725302530  1.10108589798980
 1  15.43515494129413 -0.50852836883688 -0.30571876307631
 1  15.02303220312031  0.84242463796380  2.86258903190319
 1  14.59547682118212 -1.13999167106711  2.32268976707671
 1  16.24637167026703 -0.13581716481648  2.23983046074608
 1  15.69861099599960  1.93699369276928 -0.80688066276628
 1  16.34979901250125  1.95732526802680  0.86568489168917
 1  17.63802511761176  0.46955012561256  1.06184637133713
 1  17.08331585578558  0.19045721492149 -1.06786816421642
 1  17.84739974707471  2.39607615541554 -1.44839782808281
 1  18.49482947904791  2.72497640454045  0.05898256875688
 1  19.72869543074308  1.01734458065807  0.18187153795379
 1  19.65361367936794  0.91865691529153 -2.66661878707871
 1  20.48278256825682  0.20256845504550 -1.82603673707371
 1  18.76212893989399 -0.01816953535354 -1.97922599729973
 1  20.87575435403540  3.03491307040704  0.50656140974097
 1  21.59357709800980  1.82736931963196 -0.87184989999000
 1  20.60824747764777  3.07027451465146 -1.35647044334433
 1 -0.20619624472447 -4.20164291369137  2.75915426342634
 1 -1.80223990499050 -4.77909518321832  3.34232486908691
 1 -1.23180719401940 -3.10429890699070  3.39404355755576
 8 -11.57870624492449  3.98322312151215 -1.17587940164016
 1 -13.13924443594360  2.38876011611161 -1.53704430943094

