%nproc=4
%Mem=4GB
# td=(NStates=1) iop(3/107=0140000000,3/108=0140000000) iop(3/107=0140000000,3/108=0140000000) CAM-B3LYP/6-31G(d,p) 

TD

0 1
12 -5.61049255585559  1.27408228252825  0.09007761296130
 6 -5.02490287748775 -2.06940540384038 -0.40805767256726
 6 -3.42373116221622  1.15940622542254  2.76403177647765
 6 -6.15943473917392  4.56103936813681  0.69576978577858
 6 -7.97125289238924  1.14974582528253 -2.35221289478948
 7 -4.34364861816182 -0.15971416321632  1.00201153995400
 6 -4.17517104460446 -1.52177587918792  0.61475382498250
 6 -3.26191931643164 -2.37340064286429  1.47198156185619
 6 -3.01315448644864 -1.40232312321232  2.60836739283928
 6 -3.59277670507051 -0.04771739943994  2.11982656785679
 6 -3.34549758915892 -1.81043448484849  4.02681538093809
 6 -1.93472866606661 -2.72335974527453  0.65434073957396
 6 -0.94962660616062 -3.52028960956096  1.32121570957096
 6  0.33929903040304 -3.84294813551355  0.55073326802680
 8  0.55490555485549 -3.47276459005901 -0.55745197939794
 8  1.10677752345235 -4.56888650595060  1.36420102740274
 7 -4.91765258155816  2.70789016591659  1.47657788948895
 6 -4.04451654145415  2.33468088978898  2.47671827512751
 6 -3.82362186588659  3.66130463266327  3.20900145634563
 6 -4.54552510521052  4.60358188648865  2.67949722102210
 6 -5.32953905810581  3.89899799499950  1.60785687798780
 6 -2.83173853695370  3.75009238503850  4.30697488688869
 6 -4.75295182578258  5.97771519201920  3.00065957075708
 8 -4.13827387538754  6.59635752375238  3.91416531643164
 7 -6.84301810171017  2.64875477127713 -0.67184884118412
 6 -6.93077579237924  3.99165878307831 -0.43811550025002
 6 -7.98302348874887  4.59648637343734 -1.28254236373637
 6 -8.39326878017802  3.64927185708571 -2.17441638603860
 6 -7.74008289878988  2.42261827062706 -1.75716166266627
 6 -8.36329932083208  6.01160106950695 -1.26363587238724
 6 -9.49598396169617  3.82804320252025 -3.13753838663866
 6 -8.97751920562056  4.30847899409941 -4.51234763876388
 7 -6.26953537253725 -0.13991900960096 -1.10165525752575
 6 -7.32413194279428  0.00994492589259 -2.06618082878288
 6 -7.56674418161816 -1.34209591319132 -2.73369589218922
 6 -6.70173972277228 -2.13230280208021 -2.05951211691169
 6 -6.03203161856186 -1.36267983308331 -1.12525865626563
 6 -8.48185364316432 -1.68028815481548 -3.78945584178418
 6 -6.19178284538454 -3.51340692459246 -2.03224677977798
 8 -6.54164856035604 -4.52927062546255 -2.64288055315532
 6 -5.08385694779478 -3.61593964656466 -0.94068638843884
 6 -5.21640911831183 -4.64188963006301  0.08084175597560
 8 -5.63175894749475 -4.33625263336334  1.21890825422542
 8 -4.87202690089009 -5.90249144554455 -0.38457160176018
 6 -5.34031159535954 -6.87959981328133  0.54607643744374
 6  2.35606657985799 -5.07618873907391  0.66743069746975
 6  3.41384591959196 -4.14463462436244  1.12274017381738
 6  3.98841823202320 -3.30499336943694  0.21341497649765
 6  3.70354469336934 -3.32068701000100 -1.31418092259226
 6  5.12712913871387 -2.33144819241924  0.82049584838484
 6  6.50906577787779 -2.74654757995800  0.16740820822082
 6  7.74832015561556 -1.82525188068807  0.68105379587959
 6  9.03813463476348 -2.10371520512051 -0.08771655415542
 6  9.50810719241924 -3.52736337673767  0.06117265956596
 6  9.95876645574558 -0.92350258765877  0.48627114261426
 6  11.36492379477948 -0.91484109100910 -0.25997476367637
 6  12.24682237083708  0.14995962346235  0.22894974257426
 6  13.59033148894889  0.38663353325333 -0.61556631983198
 6  14.54763306230623 -0.76606600920092 -0.21358550945094
 6  14.17433337293729  1.85831200280028 -0.37001625642564
 6  15.54099829022902  2.11755978417842 -1.05059005400540
 6  15.93595618001800  3.56429118191819 -0.71192180538054
 6  17.30821607070707  3.85088292989299 -1.38388232343234
 6  17.18125071477148  3.97543243494349 -2.86445867006701
 6  17.82408181428143  5.29320458575858 -0.81630108900890
 1 -2.80908663146315  1.13291756715672  3.69994046244625
 1 -6.56324430323032  5.46505188558856  1.06846583828383
 1 -8.74384479167917  1.07755805870587 -3.22844832363236
 1 -3.69095015981598 -3.28583389878988  1.75530359115912
 1 -1.74209133303330 -1.08595625722572  2.70757203330333
 1 -2.80904068316832 -2.73709687088709  4.31280482448245
 1 -3.17690848354835 -1.18815872027203  4.89543157295730
 1 -4.42516502820282 -1.91896097699770  4.14299825032503
 1 -2.28351366506651 -3.27709722702270 -0.18330895469547
 1 -1.47771560396040 -1.75884500080008  0.41578970057006
 1 -0.86070150365037 -2.93971526712671  2.32296651535154
 1 -1.29580430203020 -4.51770890209021  1.93815561356136
 1 -1.80157027082708  3.36389591399140  4.12423833353335
 1 -2.46076706680668  4.71408861486149  4.66868312601260
 1 -3.32518551355136  3.17001799929993  5.05952095809581
 1 -5.38426149004900  6.56814100850085  2.30492581398140
 1 -9.98214734823482  3.03145380248025 -3.05490874257426
 1 -10.07249804770477  4.57922176627663 -2.67992828352835
 1 -9.75319511931193  4.33961237523752 -5.25596079837984
 1 -8.29501901130113  5.09779952535254 -4.68597855285529
 1 -8.30879072807281  3.47193655245525 -4.76174609940994
 1 -8.10671826142614 -1.17049759265927 -4.71357235553555
 1 -8.20917190019002 -2.79632303740374 -4.24659729672967
 1 -9.47741782128213 -1.55634245764576 -3.54422132883288
 1 -4.27708506590659 -3.82853768036804 -1.40800408730873
 1  2.53298443144314 -6.09314725772577  1.27835379227923
 1  2.19309005240524 -5.23584056015602 -0.52214566416642
 1  3.65514763706371 -4.15189447124713  2.09385439303930
 1  2.72540752745275 -3.77033265436544 -1.51404394539454
 1  3.74321893519352 -2.25421898119812 -1.63037550805081
 1  4.44668684268427 -3.92073580278028 -2.16114504040404
 1  5.03811385228523 -1.35004142814281  0.38013989748975
 1  5.16754528182818 -2.52626425882588  1.87120200050005
 1  6.54109163586359 -3.76533972607261  0.37492537653765
 1  6.54871503190319 -2.76077368636864 -1.02307290279028
 1  7.29969890119012 -0.79399272437244  0.35073231873187
 1  8.13178528142814 -2.01570815391539  1.75915030033003
 1  8.87597170647065 -1.98251652685269 -1.27306064416442
 1  8.87879239793979 -4.39501827322732 -0.20352414481448
 1  10.50807014781478 -3.67250145224522 -0.58863897739774
 1  9.81402046344635 -3.72803389488949  1.20768121082108
 1  9.53942309290929  0.09970569676968  0.29200456425643
 1  10.18276837433743 -1.24901143504350  1.43848338833883
 1  11.83797893919392 -2.02948298019802 -0.13751812501250
 1  11.22908899559956 -0.90227313221322 -1.28049938353835
 1  11.67280831433143  1.29924435363536  0.09818026282628
 1  12.52554737803780  0.18018921032103  1.18443672387239
 1  13.22333913461346  0.47909234153415 -1.74445668436844
 1  14.77949728802880 -0.49439765246525  0.93044872487249
 1  14.31206677767777 -1.81902091839184 -0.31556787828783
 1  15.62847383578358 -0.83749694789479 -0.86319321182118
 1  13.50978917311731  2.59509412851285 -0.60279206690669
 1  14.19257595789579  1.86741703090309  0.81477869176918
 1  16.40959261506151  1.29128774147415 -0.88687517821782
 1  15.31989757315732  1.96025993879388 -2.12987436713671
 1  15.30365176977698  4.34472985098510 -0.96372837093709
 1  16.24633740384039  3.44777141854185  0.34659455985599
 1  18.04224790619062  3.19301079227923 -1.12236131573157
 1  16.46422714311431  4.90571710061006 -3.00658301810181
 1  17.93339926342635  4.40594010731073 -3.33378798389839
 1  16.94216441664166  2.95036610661066 -3.32839087368737
 1  18.09825587278728  5.10365158265827  0.32673433763376
 1  18.71651917421742  5.68645279747975 -1.44727164156416
 1  16.86311786268627  6.08825832893289 -0.72490655195520
 1 -5.38922422382238 -7.77424685778578 -0.11280481818182
 1 -6.39014344464446 -6.83382046864687  0.80121362886289
 1 -4.52437060566057 -6.87719929552955  1.41741619821982
 8 -8.09999759135914  6.89847634843484 -0.36019380338034
 1 -9.11806010311031  6.22961860676068 -2.01898758155816

