%nproc=4
%Mem=2GB
# td=(NStates=1) iop(3/107=0140000000,3/108=0140000000) iop(3/107=0140000000,3/108=0140000000) CAM-B3LYP/6-31G(d,p) 

TD

0 1
12 -6.90987355945595  0.57004614871487  0.12293991349135
 6 -4.72619972647265 -2.09167758955896  0.49630990799080
 6 -4.24542635803580  2.73827546064606  0.89819270087009
 6 -9.13084578927893  3.27660168426843 -0.31835133683368
 6 -9.25560365796580 -1.65511854145415 -0.63571363006301
 7 -4.80066513841384  0.40454985268527  0.53255228732873
 6 -4.23110037563756 -0.77232693949395  0.56693724912491
 6 -2.58819223782378 -0.52856461566157  0.91904396669667
 6 -2.61583154895490  0.84463461226123  1.29276143864386
 6 -3.87963422632263  1.31300138533853  0.89547432213221
 6 -2.47784407010701  1.14470626652665  2.81197576037604
 6 -1.59471822022202 -0.75194775817582 -0.15189386308631
 6 -0.12360047834784 -1.04024573117312  0.41457053055306
 6  0.72701378057806 -1.38752598949895 -0.82737091089109
 8  0.58425849394939 -0.99704231673167 -1.91841283148315
 8  1.81779206580658 -2.05244554315432 -0.31179610211021
 7 -6.79945168736874  2.52228259825983  0.29175292319232
 6 -5.49810037093709  3.19242788598860  0.57695399159916
 6 -5.86057027222722  4.72383206800680  0.54129899849985
 6 -7.14226493989399  4.89009510001000  0.15373195649565
 6 -7.77207891179118  3.53492230063006  0.02000683208321
 6 -4.79841476177618  5.67912534303430  0.98229589758976
 6 -7.79837139843984  6.08333525362536  0.01600112381238
 8 -7.37912182838284  7.15889750635063  0.21901975877588
 7 -8.79494304780478  0.67834869406941 -0.42372502160216
 6 -9.63155682808281  1.84445918121812 -0.40424147644764
 6 -10.92123875417542  1.64528439953995 -0.72700848204820
 6 -10.97649200670067  0.33014391879188 -0.97845870137014
 6 -9.71707337063706 -0.39273743694369 -0.53180525722572
 6 -11.84814158945895  2.63138933203320 -0.74475912671267
 6 -12.11818493899390 -0.46697025932593 -1.35659379307931
 6 -11.87915477757776 -1.03799596479648 -2.78502129682968
 7 -7.10785726862686 -1.49202176347635 -0.04026667116712
 6 -8.04178684028403 -2.28078807550755 -0.37584078207821
 6 -7.49929751485149 -3.68615593799380 -0.56532754285429
 6 -6.32774839603960 -3.61508066896690 -0.07043530413041
 6 -6.03566985568557 -2.18448726322632  0.08709489378938
 6 -8.50648917241724 -4.80840821862186 -0.56055887178718
 6 -5.06779298379838 -4.41503730183018  0.08856688238824
 8 -4.81523327202720 -5.67232777107711  0.03018352495250
 6 -4.09324304970497 -3.38592915211521  0.48147279447945
 6 -3.45407891879188 -3.73435961146115  1.86809652265227
 8 -4.07485272537254 -3.81199793459346  2.87729639943994
 8 -2.06877855275528 -3.67554385968597  1.52344228342834
 6 -1.19159768186819 -3.90999608970897  2.96620104530453
 6  2.89169106190619 -2.29783496039604 -1.46309755385539
 6  4.05382915031503 -1.37860486158616 -1.02338787108711
 6  5.16657741314131 -0.91788866026603 -1.68316451805180
 6  5.28257224102410 -1.55606874157416 -3.00776775897590
 6  6.25971979657966  0.05176752385239 -1.24882144064406
 6  7.56877557155716 -0.75817159925993 -0.72215895319532
 6  8.69712227252725  0.23319895449545 -0.28227670817082
 6  9.91460454985499 -0.48641556185619  0.28785047934793
 6  9.75311282758276 -1.01656047074708  1.62690705950595
 6  11.11276360636064  0.61238609280928  0.15909074747475
 6  12.41428669916992 -0.13816250905090  0.43009132033203
 6  13.49170071267127  0.93237051175118  0.30940383878388
 6  14.85811214641464  0.39005228332833  0.40425508760876
 6  14.96281126922692 -0.65224750525053  1.59230915491549
 6  15.99933956235624  1.43328823082308  0.21200440574057
 6  17.36797627572757  0.71499672407241 -0.12952982688269
 6  18.51306085348535  1.85516270747075 -0.18149829662966
 6  19.89187138823882  1.32478097289729 -0.50375045874587
 6  19.94681448274828  0.82078750905091 -2.08668445964597
 6  20.88855602450245  2.46308772677268 -0.31972706860686
 1 -3.34113475177518  3.45789704070407  1.24697409910991
 1 -9.92020600310031  3.85134421952195 -0.00027366126613
 1 -10.01196368796880 -2.27246764606461 -0.86303912981298
 1 -2.35055757255726 -1.20651826962696  1.90784083238324
 1 -1.59800913951395  1.10122059825983  0.61630808420842
 1 -1.40505188888889  0.67586590099010  3.34884559565957
 1 -2.48397657155715  2.59615819221922  2.61174729252925
 1 -3.09908224072407  0.82476036133613  3.25833170227023
 1 -1.93817283758376 -1.53566483948395 -0.84015180198020
 1 -1.63703887288729  0.34838336543654 -0.73851364216422
 1  0.23385138343834 -0.41083251655166  1.03168903410341
 1 -0.31052477227723 -1.98446478027803  1.26024625672567
 1 -3.72602713311331  5.81122895079508  0.23877883558356
 1 -5.45075535613561  6.61218389428943  0.99834674077408
 1 -4.48306933513351  5.56723568456846  1.87708548084808
 1 -8.72624563866387  6.05036014521452 -0.56774315011501
 1 -12.62633218681868 -1.31345221272127 -0.76426085328533
 1 -13.02912912791279  0.30006640644064 -1.18778641504150
 1 -12.79653747684769 -1.34536665206521 -3.08748586568657
 1 -11.35815277907791 -0.37565014351435 -3.46019818931893
 1 -10.95988281268127 -1.78646196319632 -3.05877248464846
 1 -9.00647983128313 -5.01068762436244 -1.56872910091009
 1 -7.72390760536054 -5.74859487208721 -0.34450410231023
 1 -9.18244552455246 -4.70507246844684  0.41023563306331
 1 -3.22884246564657 -3.70696442134214 -0.19893820062006
 1  2.94399601500150 -3.38921619541954 -1.26790250735073
 1  2.50606489528953 -1.81621753675368 -2.39225946124612
 1  4.06498382608261 -1.11089383778378  0.01708531013101
 1  4.72810586758676 -1.00073354585459 -3.66097621262126
 1  6.41526510491049 -1.35571424682468 -3.37456868076808
 1  5.03642747014701 -2.81316393069307 -3.09827401120112
 1  6.43821424332433  0.68147348474848 -2.22627524472447
 1  5.65991110051005  0.51689723752375 -0.28233249664967
 1  7.22040321922192 -1.13079127622762 -0.00652893129313
 1  7.95711110951095 -1.55058384868487 -1.36876635253525
 1  8.97988011941194  0.66919751455146 -1.28433121842184
 1  8.41062956105610  0.73515870407041  0.35043075147515
 1  10.30734318141814 -1.49389683338334 -0.39268642624262
 1  9.15409765406541 -2.08791760746075  1.48552691349135
 1  10.62267833723372 -1.11339522072207  2.05241713311331
 1  9.17124033563356 -0.31918314071407  2.13750505560556
 1  11.23577721552155  1.16164892479248 -0.95990316191619
 1  10.67807755435543  1.42671154675468  0.95892977327733
 1  12.64836237843784 -0.65459789928993  1.28138182148215
 1  12.52536469046905 -0.88799702030203 -0.63190618811881
 1  13.56499136913692  1.69957950295030 -0.45307421202120
 1  13.46611865666567  1.55765001630163  1.07497328672867
 1  15.02021344714472 -0.34769228522852 -0.48294648584859
 1  15.18716861676168 -0.16730633513351  2.43964673767377
 1  14.26047332083208 -1.51293896579658  1.48354585268527
 1  15.84306133923392 -1.34642822592259  1.48067454515452
 1  15.70760189508951  2.38422841624162 -0.82419239393939
 1  16.03402743534354  2.15421495699570  1.28071639483948
 1  17.60967228232823 -0.21140797019702  0.91716190289029
 1  17.40829835403540  0.30509867906791 -1.36283766116612
 1  18.32559756685669  2.88113466126613 -0.99363235153515
 1  18.35599559565957  2.33018692559256  1.01266793729373
 1  20.25038759996000  0.46129897609761  0.03021637243724
 1  19.67184550255025  1.61491654125412 -2.73221534673467
 1  20.86839112911291  0.42825102330233 -2.12676681008101
 1  19.62085481248125 -0.05849356775677 -2.10711878657866
 1  20.34923170177018  2.88836841594159  0.81105185878588
 1  21.89733747404740  2.42911949464946 -0.22572528752875
 1  21.04995164806481  3.16120360756076 -0.79311410771077
 1 -0.46109173427343 -4.15581833123312  2.54428277627763
 1 -1.38605828682868 -4.78839611331133  3.42781341794179
 1 -1.41998601190119 -2.95361383848385  3.45442959615962
 8 -11.59324769906991  3.80824562376238 -0.48952076577658
 1 -12.73061357285729  2.36859809990999 -1.25407601260126

