%nproc=4
%Mem=2GB
# td=(NStates=1) iop(3/107=0140000000,3/108=0140000000) iop(3/107=0140000000,3/108=0140000000) CAM-B3LYP/6-31G(d,p) 

TD

0 1
12 -6.71498407050705  0.64903404750475  0.04602222172217
 6 -4.46482358885889 -2.04962338413841  0.35648592559256
 6 -4.21242305770577  2.64907654075408  0.85884876647665
 6 -8.93517622232223  3.19690371447145  0.00351084938494
 6 -9.08209630723072 -1.75002803240324 -0.79491955065507
 7 -4.68757382928293  0.36514591229123  0.64793382548255
 6 -4.01191845744574 -0.89277898469847  0.52909346474647
 6 -2.53740715931593 -0.63411517071707  0.99324138643864
 6 -2.45648561436144  0.79384953375338  1.35016717921792
 6 -3.90380664356436  1.22162224742474  1.01450622532253
 6 -2.12759904560456  1.40327212311231  2.76232079487949
 6 -1.57503625202520 -1.04392695609561  0.01387271357136
 6 -0.11166928522852 -1.41062276887689  0.41091016451645
 6  0.76093717291729 -1.49882711961196 -0.88019619341934
 8  0.56608667676768 -1.11915452795280 -1.95193618381838
 8  1.85083537013701 -2.17624792339234 -0.37653257575758
 7 -6.66521826402640  2.61965233523352  0.29538328622862
 6 -5.48771933283328  3.19176781998200  0.67159345554555
 6 -5.96839105430543  4.73215290009001  0.79866473507351
 6 -7.13369408280828  5.06140223072307  0.43207979127913
 6 -7.66344804870487  3.69396820522052  0.15447027842784
 6 -4.99366428672867  5.65864329482948  1.17748541654165
 6 -7.89530109140914  6.23441036113611  0.19721924562456
 8 -7.27692160836084  7.27143876047605  0.22116997379738
 7 -8.87618117161716  0.70397125632563 -0.33900654975498
 6 -9.58829250165017  1.87554228952895 -0.33186423872387
 6 -10.86911354165417  1.70834070517052 -0.92495827702770
 6 -10.82587694519452  0.25497640204020 -1.11501235673567
 6 -9.50860252355236 -0.37717588078808 -0.84637671437144
 6 -11.86828360366036  2.77519371247125 -0.86651130193019
 6 -12.07044016451645 -0.51940550285029 -1.49795792949295
 6 -12.07866472857286 -0.61780394559456 -3.04880767546755
 7 -6.75443192609261 -1.40537309860986  0.00620797629763
 6 -7.91657431903190 -2.19640963766377 -0.45952915091509
 6 -7.48197578267827 -3.64036135853585 -0.37836884698470
 6 -6.19070469166917 -3.63272243314331 -0.13031129172917
 6 -5.92503879257926 -2.18439725422542  0.19180536483648
 6 -8.41212973647365 -4.60990836863686 -0.89763257915792
 6 -4.87048325282528 -4.53813961206121  0.07590561626163
 8 -4.66982873157316 -5.51139167746775 -0.01135062846285
 6 -3.81368509390939 -3.33109366856686  0.48816346354635
 6 -3.23850736163616 -3.72495867136714  1.94273398639864
 8 -3.77932317241724 -3.92890962576258  2.86416508630863
 8 -1.98403007790779 -3.62955926122612  1.93023296249625
 6 -1.23234175627563 -3.78156324642464  3.29185361056106
 6  2.92425431823182 -2.41061623852385 -1.28696994109411
 6  4.18578234563456 -1.43578057915792 -0.87357288958896
 6  5.13503425882588 -1.21278815021502 -1.91704790639064
 6  5.09860384418442 -1.76573970867087 -3.18387536973697
 6  6.05510933553355 -0.11954960786079 -1.43770032853285
 6  7.27489618361836 -0.83174895699570 -0.59003574087409
 6  8.48162072237224  0.13084871947195 -0.49303778427843
 6  9.74778786818682 -0.53385030533053  0.15920761506151
 6  9.52447996429643 -1.17902671737174  1.47765213401340
 6  10.92027435743574  0.34929978417842  0.21605644404440
 6  12.27146241674167 -0.14879357215722  0.18956726792679
 6  13.38743028562856  0.90554782948295  0.26540943934393
 6  14.65404173937394  0.31064434253425  0.39267392949295
 6  14.95004999309931 -0.47621990249025  1.62458238223822
 6  15.76854648304831  1.47403230523052  0.23900710601060
 6  17.16226570467047  0.79244446884688 -0.00968784268427
 6  17.96550609800980  2.03828101930193 -0.42408255505551
 6  19.51238343944394  1.44748324312431 -0.48804888858886
 6  19.84714451575158  0.70900633093309 -1.75982177337734
 6  20.46316348524853  2.69832125012501 -0.48174327022702
 1 -3.40866150445045  3.21143239423942  1.05593499519952
 1 -9.76699068156816  3.83571265636564 -0.15331896579658
 1 -10.00097258885888 -2.15690608990899 -1.15424825072507
 1 -2.39771228802880 -1.37158477627763  1.74542459075908
 1 -1.85675501410141  1.53872434863486  0.73195964936494
 1 -1.30322170587059  0.70861917631763  2.74905561666167
 1 -1.70261843574357  2.69797837423742  2.90428654645465
 1 -3.26415874837484  1.43289117441744  3.67596346544654
 1 -1.77321634193419 -1.83245451845184 -0.54466225302530
 1 -1.63177834683468 -0.36971844474447 -0.92685247604760
 1  0.49299729802980 -0.47835926922692  0.94821068626863
 1 -0.07195091489149 -2.30766710051005  0.84001423352335
 1 -3.98143267366737  5.55191301920192  0.48700365806581
 1 -5.30809108970897  6.45830850675068  0.96912381848185
 1 -4.67793882208221  5.77265622662266  2.29006677897790
 1 -9.13964697879788  5.90380548974897 -0.05789216501650
 1 -11.91441099469947 -1.53312417991799 -1.24847927512751
 1 -12.86579279427943  0.19144554435444 -0.90730836723672
 1 -12.91190901400140 -0.73536565196520 -3.41639875697570
 1 -11.74310127392739  0.05749317081708 -3.34614678417842
 1 -11.09279610401040 -1.36271958895890 -3.13612021942194
 1 -8.72076125942594 -4.44934148974897 -1.84093632163216
 1 -7.94959017361736 -5.60223023562356 -0.76296594849485
 1 -8.99731701170117 -3.86817877907791 -0.19256464696470
 1 -2.80599018041804 -3.27677140204020 -0.29639794659466
 1  3.13638525392539 -3.40370764456446 -1.33918963606361
 1  2.46588087688769 -2.11927784278428 -2.46069630493049
 1  4.27468479617962 -1.17916066446645  0.40254385598560
 1  4.30198325532553 -1.04175764826483 -4.06599671467147
 1  6.25586916531653 -1.55989466486649 -3.76149737363736
 1  5.28571239863986 -2.78505111941194 -2.90680486428643
 1  6.68425884778478  0.35329066646665 -2.41833445064506
 1  5.61017612701270  0.74355990379038 -0.78785304870487
 1  6.85960713961396 -1.48374657175718  0.31107282888289
 1  7.62522792119212 -1.82421121142114 -1.53456293219322
 1  8.82349448084809  0.32892348714872 -1.54553733903390
 1  8.34225272337234  1.17978316651665  0.29875558395840
 1  10.18458090519052 -1.21135857955796 -0.75193235083508
 1  8.57250949524953 -1.87860667636764  1.17242560336034
 1  10.36358242764276 -1.72610649184919  1.94877676907691
 1  9.07370058165817 -0.57629885228523  2.17221852695270
 1  10.59516315411541  1.17988074797480 -0.38701587318732
 1  10.90161990859086  1.11512038763876  1.15632951325132
 1  12.50901844404440 -0.66265870537054  0.97104078737874
 1  12.27261941594159 -0.70189841044104 -0.53816681418142
 1  13.22059692969297  1.58040758575858 -0.66015492009201
 1  12.99352139693969  1.76353060436044  1.42928871827183
 1  14.84932635843584 -0.62186970297030 -0.38846703790379
 1  14.98400830073007  0.22510290579058  2.75340811381138
 1  14.17153442694269 -1.23774144604460  1.94258175627563
 1  15.76686371947195 -0.92498608170817  1.49118559625963
 1  15.53548468336834  1.98368836223622 -0.52206218091809
 1  15.73278731133113  2.14735427092709  0.90387871107111
 1  17.56399771487149  0.35906907750775  0.68854904160416
 1  17.20642816701670  0.05742391159116 -0.90856223362336
 1  17.66599160626063  2.25174172197220 -1.26588957725773
 1  18.24417441354136  2.81148505540554  0.35770244074407
 1  19.77643020422042  1.02706555275528  0.45031838263826
 1  19.38229654765476  0.82230728032803 -2.86308843404340
 1  21.02567685768577  0.69404760296030 -1.67290142354235
 1  19.50327305430543 -0.30765848424842 -1.54603267796780
 1  20.35364214281428  3.23198277737774  0.58303905750575
 1  21.68432617291729  2.50086666936694 -0.39922263726373
 1  19.83871052395239  3.45833332053205 -1.39604440074007
 1 -0.35295092019202 -3.94511726112611  2.90773912191219
 1 -1.83415309630963 -4.67950522422242  3.74480511711171
 1 -1.55648966226623 -2.95261373847385  3.91187534073407
 8 -11.65020339463946  3.90887568676868 -0.61995380908091
 1 -12.92035254675468  2.38877011711171 -1.09270987598760

