%nproc=4
%Mem=4GB
# td=(NStates=1) iop(3/107=0140000000,3/108=0140000000) iop(3/107=0140000000,3/108=0140000000) CAM-B3LYP/6-31G(d,p) 

TD

0 1
12 -5.56668817541754  1.16348122242224  0.10870947614761
 6 -5.04429481668167 -2.10484894819482 -0.36182304910491
 6 -3.31059984908491  1.18061834663466  2.79947532083208
 6 -6.19270806650665  4.48454171837184  0.68129833863386
 6 -8.06666243334333  1.07730858155816 -2.41490916441644
 7 -4.28693294659466 -0.29747793959396  0.99734107290729
 6 -4.18935246274628 -1.58737243884388  0.62044439403940
 6 -3.25128825332533 -2.31137444024402  1.37458182188219
 6 -3.02121529252925 -1.34632752365237  2.58650520662066
 6 -3.58151557895790 -0.04653728142814  2.18985357055706
 6 -3.57696073547355 -1.80891433283328  3.93205590499050
 6 -1.97275246844684 -2.60983839313931  0.65837114261426
 6 -0.92783442694269 -3.44108168876888  1.38047163516352
 6  0.25419051955195 -3.95933977467747  0.57875607030703
 8  0.40531059535954 -3.55492280588059 -0.48790502470247
 8  1.01530837653765 -4.65627524482448  1.29534414171417
 7 -4.78953977027703  2.66672604950495  1.46267649934994
 6 -3.90719280908091  2.42256967866787  2.48427903120312
 6 -3.68709821352135  3.76470497269727  3.14902545874587
 6 -4.48021857455746  4.70432196049605  2.53834310561056
 6 -5.16768287248725  3.93564165936594  1.49727581988199
 6 -2.74379974307431  3.86589396519652  4.26678086748675
 6 -4.46562309290929  6.12990041054105  2.81680118491849
 8 -4.02347239523952  6.58593648164816  3.95694959485949
 7 -6.85561936183618  2.57475737153715 -0.72264392069207
 6 -6.95722843764376  3.90447006420642 -0.30171185988599
 6 -7.94290947734773  4.52629935473547 -1.12865697519752
 6 -8.50500995429543  3.68806573647365 -2.05901484588459
 6 -7.79123801430143  2.43840984978498 -1.77917386388639
 6 -8.15891888278828  5.95388529792979 -1.15976548534853
 6 -9.46022038533853  3.94137453565356 -3.06062069486949
 6 -8.93786524022402  3.97708585478548 -4.56679308330833
 7 -6.36335475447545 -0.13767878557856 -1.10545563756376
 6 -7.38694822442244  0.02906683808381 -2.02533674437444
 6 -7.56435394259426 -1.32859456305631 -2.68059058165817
 6 -6.64906445524552 -2.17412698449845 -2.04313047874787
 6 -5.90115853125313 -1.36846041114111 -1.06704283468347
 6 -8.56179163696370 -1.58624875087509 -3.86404330053005
 6 -6.25463913101310 -3.54590017391739 -1.93223677877788
 8 -6.72249664516452 -4.53444114251425 -2.57540380548055
 6 -5.01491005310531 -3.56558461106111 -0.89416173597360
 6 -5.36181365876588 -4.61826726782678  0.14054772657266
 8 -5.83026879847985 -4.50908991709171  1.23856021942194
 8 -4.81661135933593 -5.91475267166717 -0.32854599919992
 6 -5.23769133333333 -6.96347820112011  0.55860769056906
 6  2.25037601080108 -5.09675079527953  0.59049300370037
 6  3.44460899589959 -4.10507066796680  0.85795369516952
 6  4.01739112931293 -3.35726859695970  0.05094872987299
 6  3.68363270217022 -3.13413835513551 -1.38401790629063
 6  5.09696612241224 -2.47227227482748  0.61814561336134
 6  6.48734360566057 -2.65509843504350 -0.16674520712071
 6  7.58977430103010 -1.79956931243124  0.57985367586759
 6  9.02345316661666 -1.98606343994399 -0.04706248874888
 6  9.48092447414741 -3.47051769216922  0.17020356265627
 6  10.04544512361236 -0.91003124052405  0.48043055855586
 6  11.36290359275928 -0.96344595149515 -0.19836860306031
 6  12.25445313391339  0.24235886338634  0.30278712631263
 6  13.53853630943094  0.37384225412541 -0.52336709990999
 6  14.47547584658466 -0.75237464006401 -0.17314146504650
 6  14.28586452605260  1.76885305690569 -0.10876013081308
 6  15.45964015441544  2.16428445664566 -0.99919491449145
 6  15.95098768316832  3.55186993979398 -0.67093770697070
 6  17.29196444554455  3.99149699129913 -1.39692362756276
 6  17.08343093279328  4.19116400810081 -2.95233745794579
 6  17.81565097119712  5.28165343064306 -0.65281474037404
 1 -2.77494321712171  1.27778205360536  3.64787525592559
 1 -6.50658863766377  5.63574895529553  0.83338232993299
 1 -9.00572097929793  0.95984628752875 -2.92216769556956
 1 -3.42358342314232 -3.28986430183018  1.80630869166917
 1 -1.86118324222422 -1.14647230883088  2.80986226232623
 1 -3.05833561266127 -2.73547670887089  4.51694523852385
 1 -3.52866365906591 -0.91075097949795  4.48833086288629
 1 -4.70401291299130 -2.11646072697270  3.72192614311431
 1 -2.22727804150415 -3.12010152745275 -0.31598222202220
 1 -1.29448728112811 -1.67569668596860  0.43765188678868
 1 -0.64650008350835 -3.03844514011401  2.23905812451245
 1 -1.28835355695570 -4.28005513671367  1.87830962896290
 1 -1.82317243104310  3.25682520692069  4.07501341104110
 1 -2.46666765686569  4.90412761876188  4.39873613131313
 1 -3.30121311631163  3.46865786328633  5.01697670367037
 1 -4.94188725262526  6.89297349174918  2.08887420882088
 1 -10.38473760726073  3.31614227132713 -3.11666491819182
 1 -9.87417821572157  4.97997184128413 -3.19565985668567
 1 -9.82433223302330  4.06561497549755 -5.25211041334133
 1 -8.16989649904991  4.72867261266127 -4.60654060906091
 1 -8.27375722472247  2.99418877767777 -4.87844776957696
 1 -7.99951754135414 -1.21967251015101 -4.74346534483448
 1 -8.71950293329333 -2.78727213231323 -3.83443608060806
 1 -9.57796787628763 -1.23150997439744 -3.44867177387739
 1 -4.30011736913691 -3.89831465806581 -1.53637692459246
 1  2.46650778377838 -6.13039098209821  0.90934689158916
 1  2.03418416181618 -5.15856283238324 -0.44534798439844
 1  3.75435755805581 -4.34284356615662  1.87117212481248
 1  2.63948893559356 -3.47057267836784 -1.66048858985899
 1  3.84442905620562 -2.18736229552955 -1.41783425392539
 1  4.21124329832983 -3.91057478667867 -1.99842876877688
 1  4.85266530743074 -1.20094651865187  0.46193807730773
 1  5.45638416571657 -2.78596022842284  1.75319019931993
 1  6.50940846754675 -3.79478267036704 -0.02331444744474
 1  6.32140230063006 -2.36628423742374 -1.30310090559056
 1  7.29181811311131 -0.72506583168317  0.61760900640064
 1  7.49703180608061 -2.23460004310431  1.61120550585058
 1  8.98127223652365 -1.75866414161416 -1.13422676077608
 1  8.73758827752775 -4.22544131553155 -0.23795758815882
 1  10.57536687748775 -3.53740794289429 -0.32715282878288
 1  9.51901096249625 -3.79211030253025  1.33088353105311
 1  9.56768591919192 -0.05749002280228  0.54628999279928
 1  10.20648074557456 -1.17114364826483  1.59390893089309
 1  11.88010315161516 -1.78682871477148  0.32165779257926
 1  11.12301838853885 -0.83657656255626 -1.39953128672867
 1  11.66494752825283  1.16122055125513  0.33977442224222
 1  12.32871769506951  0.07026821822182  1.38681696189619
 1  13.29850665136514  0.46410084238424 -1.63983622232223
 1  14.41395073337334 -0.81236944964496  0.90922660266027
 1  14.01530710171017 -1.80458947524753 -0.57684400590059
 1  15.58659964836484 -0.65385858405841 -0.62237913041304
 1  13.43169136333633  2.56239085818582 -0.23182497019702
 1  14.72196889718972  1.86590687988799  0.87735494939494
 1  16.13154481028103  1.45616422912291 -0.89126561726173
 1  15.02624820822082  2.20340425322532 -2.11841322102210
 1  15.01359276387639  4.14410978897890 -0.94354635273527
 1  16.16825959605961  3.61508815021502  0.46671657205721
 1  18.09520320172017  3.08334982618262 -1.34289336893689
 1  16.56579730013001  5.20328685758576 -3.23965632543254
 1  18.05193111661166  4.37630714401440 -3.37157176227623
 1  16.71029122932293  3.36058712871287 -3.42808084268427
 1  18.23821986918692  5.12612382988299  0.43291495569557
 1  18.96522404470447  5.41299545174517 -1.09007592199220
 1  17.24175572647265  6.19221872497250 -0.66845090639064
 1 -4.49155445684568 -7.75925535863586  0.05658212051205
 1 -6.22832726302630 -7.36566365296530  0.59461296879688
 1 -4.71479964856486 -6.81464303990399  1.59651410801080
 8 -7.79035662726273  6.86959346014601 -0.45338312231223
 1 -8.79355765286529  6.24245989088909 -2.04898058085809

