%nproc=4
%Mem=2GB
# td=(NStates=1) iop(3/107=0140000000,3/108=0140000000) iop(3/107=0140000000,3/108=0140000000) CAM-B3LYP/6-31G(d,p) 

TD

0 1
12 -6.92628520062006  0.50049919401940  0.09610723022302
 6 -4.44672177867787 -2.05153357515752  0.39987026402640
 6 -4.32083389878988  2.78407004010401  0.90022290389039
 6 -9.19027173187319  3.19029305340534 -0.25121462316232
 6 -9.15435353295330 -1.76785981558156 -0.64081414011401
 7 -4.86005107700770  0.40624002170217  0.52314134623462
 6 -4.06730399599960 -0.81431113791379  0.61858241364136
 6 -2.49183260186019 -0.48671043024302  0.84644670697070
 6 -2.63949391519152  1.10676082488249  1.14114627712771
 6 -4.10061632453245  1.51567165236524  0.84082885758576
 6 -2.33919020472047  1.45397719361936  2.44737930073007
 6 -1.62594134253425 -1.03839640304030 -0.16107478117812
 6  0.00030191189119 -0.91687339393939  0.19018809230923
 6  0.85645672487249 -0.99805704260426 -0.92182035583558
 8  0.85798586668667 -0.60870348284828 -2.03251424162416
 8  2.02479276587659 -1.67606790539054 -0.50383530603060
 7 -6.80354209640964  2.59591996199620  0.38226197409741
 6 -5.67350791169117  3.29649829302930  0.65868216441644
 6 -5.90097431263126  4.70194987978798  0.40924579317932
 6 -7.30751146454645  4.86138222872287  0.33797038033803
 6 -7.84424612851285  3.56198500690069  0.17151198259826
 6 -4.86370129042904  5.87377480798080  0.80111777977798
 6 -8.10752231353135  6.11118803890389  0.20913043674367
 8 -7.47858177437744  7.23726534313431  0.55029288608861
 7 -8.88219177267727  0.65881674087409 -0.26363901300130
 6 -9.59699337173717  1.67408214351435 -0.29440049234923
 6 -10.94408103840384  1.37994786588659 -0.61313709490949
 6 -11.07563192069207  0.03202410681068 -0.71590244574457
 6 -9.75792745604560 -0.50533869706971 -0.57033911061106
 6 -11.93441021632163  2.37924411751175 -0.91598624942494
 6 -12.16982010251025 -0.73117667996800 -0.95086322002200
 6 -12.29281614371437 -1.27341950715072 -2.40682347704771
 7 -7.00928741164116 -1.42816537783778 -0.03017566206621
 6 -7.99073173477348 -2.28415841254125 -0.35072827082708
 6 -7.47237482258226 -3.85673299569957 -0.14572558265827
 6 -6.08918453965396 -3.62539170007001 -0.01138939953995
 6 -5.76325261396140 -2.18881769626963  0.09533571787179
 6 -8.38162668616862 -4.90311768956896 -0.29348216411641
 6 -4.99381558605861 -4.42552835093509  0.11250927662766
 8 -5.00535228392839 -5.52315285358536 -0.01590108350835
 6 -3.82805653105311 -3.35594615381538  0.44807945514551
 6 -3.06734024492449 -3.57913408890889  1.71635134813481
 8 -3.54670991109111 -3.86284301910191  2.77636630643064
 8 -1.65387706260626 -3.51451775707571  1.53717365656566
 6 -0.88803732583258 -3.86204129422942  2.62667709290929
 6  3.06418831163116 -1.83559873677368 -1.54013525762576
 6  4.17634140154015 -1.06629363046305 -1.06160169246925
 6  5.17848860426043 -0.64160103150315 -1.96790299189919
 6  5.10054403820382 -1.01029416411641 -3.41566854905491
 6  6.14845867046705  0.36640898799880 -1.43348990749075
 6  7.30164885888589 -0.59348513061306 -0.93060979827983
 6  8.39278183848385  0.28513414801480 -0.54241272177218
 6  9.68558164756476 -0.39200612091209 -0.04130243594359
 6  9.42128964526453 -0.89492830753075  1.39967433623362
 6  10.82455478547855  0.53120797499750  0.01250608900890
 6  12.26006127662766 -0.17051574437444  0.16013432463246
 6  13.53636517911791  0.77443471817182  0.48411130953095
 6  14.84957129232923 -0.02431915381538  0.64335899799980
 6  14.91097608570857 -0.60893317381738  1.95025494949495
 6  15.98900852925293  1.10638554055406  0.49938314361436
 6  17.42565204330433  0.43400862526253  0.32443556965697
 6  18.40225977337734  1.53896108730873 -0.15606575337534
 6  19.79402160326033  0.92531102590259 -0.29894997869787
 6  19.92066186748675  0.25338076837684 -1.59510530173017
 6  20.93942111101110  2.11885330333033 -0.26049114501450
 1 -3.33462410071007  3.55975722672267  1.01873127482748
 1 -9.86809079157916  3.72525161026103 -0.44019765366537
 1 -10.18371086268627 -2.56021642094209 -0.69898272417242
 1 -2.35317783458346 -1.17140475827583  1.38373842214222
 1 -2.01848118671867  1.75467594379438  0.32026848024803
 1 -1.39912129582958  1.16687500190019  2.81828253935394
 1 -2.11828000190019  2.65524410081008  2.74166028382838
 1 -2.95934826732673  1.24936282158216  3.08038390749075
 1 -1.87827684798480 -2.06829810281028 -0.67247503430343
 1 -1.49538470747075 -0.40085155805581 -1.01030082088209
 1  0.50083808210821  0.01874044074407  0.81787765296530
 1  0.05751203140314 -1.85776211001100  1.14074430653065
 1 -3.89146367676768  5.53447127502750  0.14312927062706
 1 -5.41900218081808  6.70030270617062  0.54211111721172
 1 -4.49303033123312  5.47229619061906  1.57841561386139
 1 -9.08877189128913  6.00284539373937 -0.44058043384338
 1 -12.61315086868687 -1.56159702720272 -0.46134056125613
 1 -13.13743995899590 -0.11595519571957 -0.93811144754476
 1 -13.11520934403440 -1.75340745614561 -2.70595771287129
 1 -11.92288925272527 -0.45104768326833 -2.90093226272627
 1 -11.37272409680968 -2.21011432843284 -2.70295690309031
 1 -9.54527371067107 -4.42064862046205 -0.91633386138614
 1 -7.58931414601460 -5.72194220682068 -1.07043669556956
 1 -8.43674095409541 -5.69895185638564  0.88966357585759
 1 -3.25914549594959 -3.33589731463146 -0.50715902270227
 1  3.09946156155616 -3.11559883368337 -1.73486920402040
 1  2.61983627242724 -1.87653356835684 -2.50313054835484
 1  4.36121344904490 -0.73532628102810  0.17864146574657
 1  4.31307436443644 -0.71869534203420 -3.98702881788179
 1  5.89415299369937 -0.95935461086109 -3.44568579247925
 1  5.42651647904790 -1.65704831913191 -3.68789297309731
 1  6.55444586648665  0.92935827322732 -2.37610022722272
 1  5.80662577197720  0.97567311511151 -0.55006927032703
 1  6.85058623752375 -1.24233243034303 -0.01593987238724
 1  7.81844724312431 -1.30855964626463 -2.05544502040204
 1  8.89023115451545  1.03005360016002 -1.65569835513551
 1  7.99851834993499  1.30804599279928  0.39209491789179
 1  9.97972041914191 -1.09452689638964 -0.67460461806181
 1  8.90682292659266 -1.80190900660066  0.91964032483248
 1  10.36183225262526 -1.56127000820082  2.10495238663866
 1  8.90158336993700 -0.29268049044904  2.27496880198020
 1  11.05723936173617  0.93653641354135 -1.05824299589959
 1  10.69374912151215  1.12926180178018  0.73507738803880
 1  12.21037858005801 -0.59697213671367  0.99102278557856
 1  12.16499865386539 -0.91523974457446 -0.60849384688469
 1  13.30628549854985  1.32250179517952 -0.39842874747475
 1  13.16561860666067  1.16195044634464  1.29012480188019
 1  14.85860728652865 -0.64659217521752 -0.17596578777878
 1  14.86411631153115  0.29848024352435  2.74676744974498
 1  13.91194846834683 -1.36289396129613  2.22951044914491
 1  15.67486451955195 -1.70792437553756  1.85955243294329
 1  15.83340447534753  1.63310330373037 -0.58769874457446
 1  15.93504753735374  2.01291082658266  1.32399072227223
 1  17.35949726482648 -0.09882671207121  1.46122630933093
 1  17.35811333553355 -0.83298512931293 -0.35219659705971
 1  17.87862286938694  1.88374492229223 -1.02333532183218
 1  18.47684768086809  2.68927283418342  0.34127079757976
 1  19.90296285748575  0.21696454265427  0.52782613341334
 1  20.04279259725972  0.94455950555056 -2.14043616881688
 1  20.45587987798780 -0.32811461326133 -1.70178431183118
 1  18.77171989898990 -0.17696541494149 -1.81924999969997
 1  21.28962574117412  2.21331091019102  0.92390314391439
 1  22.03174091439144  1.54493107580758 -0.74053676867687
 1  20.45978263116312  3.09412689988999 -0.64443924022402
 1 -0.08250387548755 -4.22754550395040  1.88298664666467
 1 -1.27935761676168 -4.58620589428943  3.17687832443244
 1 -0.79970398369837 -3.35062353945395  3.28555270847085
 8 -11.69198757305731  3.52767756695670 -1.00376218991899
 1 -12.82275278677868  1.99273051315132 -1.07948855385538

