%nproc=4
%Mem=4GB
# td=(NStates=1) iop(3/107=0140000000,3/108=0140000000) iop(3/107=0140000000,3/108=0140000000) CAM-B3LYP/6-31G(d,p) 

TD

0 1
12 -5.77143865046505  1.10981585588559  0.26047465266527
 6 -5.07972836003600 -2.17142560586059 -0.28636550335033
 6 -3.38707749684968  1.10941122592259  2.62029740304030
 6 -6.22631142684268  4.44933819801980  0.74021423022302
 6 -8.12650841794179  1.15518636933693 -2.17312498599860
 7 -4.37141139443944 -0.31865005680568  1.02160349914991
 6 -4.32431595909591 -1.64762846444644  0.62190454005401
 6 -3.29887301180118 -2.26530983378338  1.42266663036304
 6 -2.92827599859986 -1.28028091899190  2.65797235333533
 6 -3.66877430483048 -0.09086171387139  2.07301188638864
 6 -3.57572061146115 -1.79175261666167  4.00260295969597
 6 -2.03217841104110 -2.73123053235324  0.61258656415642
 6 -0.97963960746075 -3.53494107470747  1.49651323932393
 6  0.25174027452745 -3.80100394109411  0.70357855255526
 8  0.39035910021002 -3.09599691329133 -0.30335656985699
 8  1.12380922662266 -4.67841745904590  1.16494110141014
 7 -4.99201001730173  2.55026440334033  1.50416064776478
 6 -4.06666875667567  2.35384280598060  2.42098270157016
 6 -3.72824232793279  3.51228973117312  3.13994455065507
 6 -4.47797835053505  4.50102163046305  2.57322659395940
 6 -5.31296740094009  3.87118521372137  1.52369846214621
 6 -2.66274163726373  3.79507688348835  4.24646883628363
 6 -4.58152468306831  5.98725614611461  2.74256376117612
 8 -3.88716876487649  6.56159404740474  3.62778667856786
 7 -6.88500230013001  2.55660555635564 -0.69901155745575
 6 -6.90086280108011  3.86959657685769 -0.34555624432443
 6 -7.92014720112011  4.56457318211821 -1.24123823332333
 6 -8.35338479177918  3.67476440634063 -2.10494943934393
 6 -7.80240913141314  2.36783279207921 -1.67468341484148
 6 -8.23281627252725  6.00568047744775 -1.06729623842384
 6 -9.43679804310431  3.79494989318932 -3.15893052585259
 6 -8.82482393609361  4.24553269946995 -4.47340374437444
 7 -6.39078749774977 -0.09778479617962 -1.21547663966397
 6 -7.41362089168917 -0.04674074267427 -2.00723493419342
 6 -7.65028253545355 -1.32769447304730 -2.72436495909591
 6 -6.71737128592859 -2.13412298409841 -2.11474764046405
 6 -5.96408482388239 -1.36065963106311 -1.16774290469047
 6 -8.53524898269827 -1.68845897189719 -3.80587748394839
 6 -6.28422208930893 -3.57065264916492 -2.00095365046505
 8 -6.54844924042404 -4.55672337073707 -2.63660992609261
 6 -5.10261882398240 -3.51563961656166 -0.89572189198920
 6 -5.31343882128213 -4.73042848394839  0.11840551235124
 8 -5.84106987858786 -4.52049105720572  1.21149751315132
 8 -4.86474617281728 -5.91147234363436 -0.39710285488549
 6 -5.15142270647065 -7.03235508880888  0.54545637543754
 6  2.33398437163716 -4.99897101730173  0.59159311371137
 6  3.36810134513451 -3.98542870377038  1.11456935673567
 6  3.99877926812681 -3.12709557965797  0.28676231123112
 6  3.54844918381838 -3.02884782608261 -1.24401390589059
 6  5.15930235603560 -2.31708675627563  0.72938673747375
 6  6.46161103240324 -2.49075200040004  0.05789725712571
 6  7.65361068466847 -1.67275663116312  0.55248093859386
 6  9.01190201150115 -1.92401723532353 -0.12348013051305
 6  9.47979436113611 -3.34936557695770  0.29254579687969
 6  9.95245582468247 -0.87403764116412  0.19636215171517
 6  11.25123242564256 -0.82469207610761 -0.42892165836584
 6  12.18716640524052  0.36961158865887 -0.00199335173517
 6  13.58585104090409  0.49377424732473 -0.52040680388039
 6  14.42397069606961 -0.68623802640264 -0.23374752565257
 6  14.26030196979698  1.69336550815081 -0.27054630943094
 6  15.56837102750275  2.13386141434143 -1.05233022802280
 6  16.23656624102410  3.41752650545055 -0.60249086228623
 6  17.54421967106711  3.80400824242424 -1.28926286148615
 6  17.31323391309131  4.07503239493949 -2.80247247144714
 6  18.28211761786179  4.99569483478348 -0.69903936283628
 1 -2.72471819461946  1.10154442984298  3.59681014941494
 1 -6.26946492529253  5.53769915031503  0.71557054875488
 1 -8.93303371057106  1.05320562346235 -2.98521400020002
 1 -3.83899496429643 -3.20288560396040  1.74286234703470
 1 -1.85721284518452 -1.04662232383238  2.57015829192919
 1 -3.24828460756076 -2.67332049324932  4.24690823482348
 1 -3.12050284298430 -1.12042194659466  4.78582061186119
 1 -4.77245975767577 -1.83218229912991  3.84757870837084
 1 -2.50315562926293 -3.36286580388039 -0.24587521132113
 1 -1.61131896429643 -1.86676579287929  0.19499762136214
 1 -0.80195562906291 -3.08034933053305  2.35880009870987
 1 -1.64621934353435 -4.47276440764076  1.82937473547355
 1 -1.89740985478548  3.36452597699770  3.92228813851385
 1 -2.60780177027703  4.81057826382638  4.50227648534854
 1 -2.70859385438544  3.16027702520252  5.11373637963796
 1 -5.32157522142214  6.51666586098610  2.14451977337734
 1 -9.93838297179718  2.79933059015902 -3.45786903860386
 1 -10.33016381428143  4.48273211731173 -3.05613590429043
 1 -9.49414921472147  4.09083749774978 -5.35903110541054
 1 -8.24858436783678  5.20205995139514 -4.49997995299530
 1 -7.91574142314231  3.44079343814381 -4.74683460826083
 1 -8.17549513911391 -1.10549109200920 -4.81930292859286
 1 -8.45831681468147 -2.90400380548055 -4.04170680768077
 1 -9.65778585808581 -1.41259808320832 -3.81111801850185
 1 -4.14388174557456 -3.66799162576258 -1.59688297519752
 1  2.46910804380438 -5.93784172717272  1.00286624352435
 1  2.15969671307131 -4.91030800690069 -0.44205765536554
 1  3.80019214151415 -4.17509679147915  2.01851685928593
 1  2.40452543924392 -3.13906952805280 -1.23076561756176
 1  3.80089470277028 -2.02033559285929 -1.68502097259726
 1  4.23258543254325 -3.75158888808881 -1.86373529942994
 1  4.95316535743574 -1.10603702770277  0.79943182668267
 1  5.38578710601060 -2.53165479787979  1.85346022632263
 1  6.72293982068207 -3.60617380948095  0.04993287728773
 1  6.29171933233323 -2.28881649064906 -1.11803239873987
 1  7.15589452075208 -0.75387871297130  0.30415766126613
 1  7.80976307920792 -1.85125170827083  1.71067545284528
 1  8.83997810711071 -1.99574784998500 -1.21340467856786
 1  8.62455697439744 -3.95565433683368 -0.10627441984198
 1  10.37421676247625 -3.69474367646765 -0.45226534003400
 1  9.69096815821582 -3.47315840734073  1.32646308900890
 1  9.15766491709171  0.06235196139614 -0.01426606280628
 1  10.07612771027103 -0.84280081398140  1.29236877687769
 1  11.76981212251225 -1.74611464336434 -0.25909028222822
 1  11.18455454215422 -0.68757166206621 -1.54545587918792
 1  11.81553258675868  1.30695512471247  0.17988843364336
 1  12.20158498179818  0.08074926632663  1.07875615581558
 1  13.34071087178718  0.46029046134613 -1.65652789148915
 1  14.30139947824783 -1.16518473117312  0.87278295829583
 1  14.19298486948695 -1.63930294659466 -1.05353167466747
 1  15.68543953235324 -0.43541673987399 -0.44114100660066
 1  13.57473566776678  2.61087570667067 -0.45962775047505
 1  14.42596929722972  1.68889917911791  1.00117733163316
 1  16.42606426222622  1.40696930963096 -0.88199469016902
 1  15.23802938633863  2.20908482128213 -2.16680806050605
 1  15.50608201280128  4.21488686668667 -0.66508850695069
 1  16.50143291339134  3.26410305170517  0.41420132053205
 1  17.99822350375037  2.76935842704270 -1.11916099569957
 1  16.69683040344034  5.00885741464147 -2.91031339113911
 1  18.37070299379938  4.28287780108011 -3.33581818691869
 1  16.83748394859486  3.29376044604460 -3.22398043264326
 1  18.13989003620362  4.91593281078108  0.46813847804780
 1  19.17523504580458  5.18663281548155 -1.06956387078708
 1  17.81669322022202  5.96694619771977 -0.93518758005801
 1 -4.62296759815982 -7.89209864296430  0.03604006630663
 1 -6.19819424972497 -7.05361244784479  0.48449195669567
 1 -4.89133730233023 -6.62544412001200  1.62837729432943
 8 -7.80610820242024  6.84473097389739 -0.28956674067407
 1 -8.92257055415542  6.33847949284928 -1.95589127192719

