%nproc=4
%Mem=2GB
# td=(NStates=1) iop(3/107=0140000000,3/108=0140000000) iop(3/107=0140000000,3/108=0140000000) CAM-B3LYP/6-31G(d,p) 

TD

0 1
12 -6.73747631973197  0.46391553565357  0.15466308580858
 6 -4.45617272377238 -2.01264968676868  0.33312358935894
 6 -4.19604141954195  2.77685931903190  0.96955983758376
 6 -8.69140184488449  3.20148417251725 -0.28363786548655
 6 -9.17410550815082 -1.50326335593559 -0.83868392709271
 7 -4.46696176807681  0.38844824252425  0.63590262236224
 6 -3.93055032063206 -0.90274998179818  0.58404896029603
 6 -2.28998241684168 -0.57493925312531  0.91978404070407
 6 -2.33604357015702  0.97785793459346  1.16250841334133
 6 -3.83946020892089  1.38600868606861  0.95654042874287
 6 -1.78445473117312  1.26963875977598  2.60177474027403
 6 -1.45648439683968 -1.12426498989899 -0.21159983368337
 6 -0.09980809910991 -1.34285599219922  0.31634070757076
 6  0.93295437463746 -1.56447368426843 -0.73810198399840
 8  0.89235930403040 -1.22482509500950 -1.83514450465047
 8  1.80307059365937 -2.35243554215422 -0.17151207370737
 7 -6.31790353255326  2.53450382038204  0.28292204010401
 6 -5.34104466536654  3.27597624082408  0.60383667986799
 6 -5.56341055625563  4.81592127692769  0.63489835843584
 6 -7.00374108750875  4.89317540804080  0.47947453075308
 6 -7.47550925482548  3.57051585998600  0.00815564696470
 6 -4.56917183748375  5.75962339283928  1.04021168916892
 6 -7.83940550185018  6.10705762586259  0.39574909860986
 8 -7.38195211141114  7.20974259085909  0.63054091089109
 7 -8.54060761426143  0.80098095729573 -0.50556320542054
 6 -9.12613628602860  1.85103983928393 -0.58734978727873
 6 -10.66928355865587  1.63297316841684 -0.82128790999100
 6 -10.72248660616061  0.17093799819982 -1.03533438893889
 6 -9.52827449074907 -0.30839900310031 -0.71621369806981
 6 -11.77963473877388  2.60155634873487 -0.98587323812381
 6 -12.08132125262526 -0.30869443174317 -1.34004213791379
 6 -12.19070593269327 -0.56500866606661 -2.76566936163616
 7 -6.82029851275127 -1.28444100540054 -0.24739738423842
 6 -7.91517417901790 -2.15183518021802 -0.55026822482248
 6 -7.63674125922592 -3.51820914331433 -0.54433544364436
 6 -6.46275189638964 -3.48390755165517 -0.11252951355135
 6 -5.82577886658666 -2.15970478497850 -0.10081389708971
 6 -8.66764528802880 -4.86058343614361 -0.66917973387339
 6 -5.18553475797580 -4.42257805590559  0.17306533223322
 8 -5.14660640934093 -5.56754729302930  0.08631913851385
 6 -3.94512823822382 -3.33379393859386  0.50383503070307
 6 -3.51011452235223 -3.66983315881588  1.91333104610461
 8 -4.05425066516652 -3.82535927072707  2.96908557835784
 8 -2.15217689258926 -3.74211051635164  1.82418235743574
 6 -1.58665718781878 -4.21326641674167  3.20277470267027
 6  2.99647153995400 -2.76582175907591 -1.04663590769077
 6  3.98206197359736 -1.69003600470047 -0.86683221552155
 6  5.09561031643164 -1.45066193759376 -1.71335753735374
 6  5.40097408120812 -2.26081921662166 -2.94340132233223
 6  6.08566239083908 -0.24642229512951 -1.43205976447645
 6  7.28139683368337 -0.97716349844984 -0.63345008230823
 6  8.27765032533253  0.26712234683468 -0.48868734923492
 6  9.65918900830083 -0.18847576787679 -0.03648195389539
 6  9.43253076937694 -0.72231104580458  1.28448281708171
 6  10.61848417841784  0.75759061326133  0.01138597699770
 6  12.11342661316132  0.27431873907391  0.20085839703970
 6  13.12281382398240  1.16802407710771  0.33082598099810
 6  14.56411274647465  0.43174645274527  0.57308197029703
 6  14.72600758885889 -0.24415669616962  1.99196912091209
 6  15.69228885728573  1.50537543954395  0.29121232653265
 6  17.07619709780978  0.89644486888689  0.04590771687169
 6  18.03977352475248  2.05215240644064 -0.53617376417642
 6  19.49307150825083  1.46259475427543 -0.55089517321732
 6  19.70181998329833  0.56517194749475 -1.84569036023602
 6  20.53209037793780  2.61701311931193 -0.58578367426743
 1 -3.10340097839784  3.64371562256226  0.82945234693469
 1 -9.20961494399440  3.91472055715572 -0.63830746464646
 1 -10.11913440504050 -2.23583398269827 -1.12164499039904
 1 -1.96317883468347 -1.37263488128813  1.79929997829783
 1 -1.62998233683368  1.51507198339834  0.53502995639564
 1 -0.76712809650965  1.18933724812481  3.08928964006401
 1 -1.84515268916892  2.48383696009601  2.66258237603760
 1 -2.55245757825783  0.77391527682768  3.50522639173917
 1 -1.89816883718372 -1.83085435843584 -0.86185397219722
 1 -0.97532270127013 -0.19644111701170 -1.02483227402740
 1  0.40746874517452 -0.73462489578958  0.94815068026803
 1  0.03213949414942 -2.48841517531753  0.88729896199620
 1 -3.67499202960296  6.01018884678468  0.48095305300530
 1 -4.89722000260026  6.71642431833183  1.26971387748775
 1 -4.22314334253425  5.50008896989699  2.14258203050305
 1 -9.05287830193019  6.06428153735374 -0.07554393019302
 1 -12.34997455105511 -1.14876574407441 -1.06849127632763
 1 -12.85932214721472  0.23310971077108 -0.73742137853785
 1 -13.09735755885589 -1.28909102450245 -2.82464958205821
 1 -12.49412637643764  0.37740516201620 -3.46356852635263
 1 -11.19720654505451 -1.11385470247025 -3.37144375177518
 1 -9.02151133443344 -5.14089064466447 -1.85534776277628
 1 -8.43606882148215 -5.80361037363736 -0.44198385028503
 1 -9.19149642964297 -4.68365032623262  0.18258286778678
 1 -3.12208178957896 -3.91828555345535 -0.50018832563256
 1  3.40663227862786 -3.75768304210421 -0.56053177027703
 1  2.69358364716472 -2.96688260326033 -2.07990822612261
 1  3.83192051975197 -0.75954870327033 -0.00654705310531
 1  4.52214527152715 -2.07473094559456 -3.54934504950495
 1  6.35543912231223 -2.40237891329133 -3.51230245414541
 1  5.35314914231423 -3.56943955825582 -2.63952813661366
 1  6.23635405730573  0.40753609100910 -2.29796241344134
 1  5.78965407480748  0.66470201800180 -0.69488375177518
 1  7.10842202110211 -1.67980617771777  0.36592831443144
 1  7.96109150755076 -1.94381317161716 -1.46556603250325
 1  8.42612474387439  0.85246584138414 -1.05693847914791
 1  8.05534403250325  0.82808799699970  0.46059176757676
 1  9.59507195429543 -0.91741918561856 -0.71333849144915
 1  8.67694993929393 -1.34095291099110  1.22191055185519
 1  10.32511858125813 -1.17114099529953  1.52450434183418
 1  9.30024323592359  0.15451422902290  1.89097040214021
 1  10.74853849164916  1.23164592449245 -1.00232740434043
 1  10.79864961156115  1.73830270587059  0.76664054435444
 1  11.97878542074207 -0.45856829632963  1.00711439473947
 1  12.11031318531853 -0.84307252785279 -0.39746274377438
 1  13.24532940294030  2.06028557355736 -0.56699560416042
 1  13.01300334513451  2.00211446274627  1.18509429882988
 1  15.00201162696270 -0.52209972597260 -0.00432862406241
 1  14.71860176007601  0.56680707620762  3.06151892489249
 1  13.92557983148315 -0.80230790269027  2.08412591069107
 1  15.73725075817582 -0.68315189828983  2.45212168986899
 1  15.47617875277528  2.20030002340234 -0.66019599429943
 1  15.95769980258026  2.01692122762276  1.13154147734774
 1  17.60189150425042  0.69637280788079  0.94225441214121
 1  16.79297682188219  0.69952812201220 -0.61122249964996
 1  17.80300530763077  2.54608115591559 -1.37887087538754
 1  18.03534353045305  2.74020792769277  0.35229189968997
 1  19.54140670187019  0.56377922412241  0.31291464226423
 1  19.48069638763876  1.19331438103810 -2.83009513471347
 1  20.78625291529153  0.38982718091809 -1.73883801720172
 1  19.06097882488249 -0.38654637303730 -1.35822389708971
 1  20.35211198979898  3.33054263336334  0.43075382898290
 1  21.61029877017702  2.64980156285629 -0.59561227622762
 1  20.32176882978298  3.39354684188419 -1.59421421772177
 1 -0.54000962606261 -4.04889763916392  2.72698104610461
 1 -2.04130381138114 -5.34391166486649  2.97936857345735
 1 -1.57858187148715 -3.62706118321832  4.22070622382238
 8 -11.72525089938994  3.77572237143714 -0.74343615731573
 1 -12.72819333083308  2.22495373547355 -1.60324092909291

