%nproc=4
%Mem=2GB
# td=(NStates=1) iop(3/107=0140000000,3/108=0140000000) iop(3/107=0140000000,3/108=0140000000) CAM-B3LYP/6-31G(d,p) 

TD

0 1
12 -6.85728830093009  0.58921806590659  0.18237585708571
 6 -4.58323543004300 -2.04765318711871  0.44530480748075
 6 -4.11155297069707  2.78953058615862  0.83409629122912
 6 -8.98006071077108  3.21657568166817 -0.24678418011801
 6 -9.33474157175718 -1.69028205780578 -0.52527258595860
 7 -4.72950802270227  0.50571996969697  0.57688672077208
 6 -4.05587285288529 -0.77579728652865  0.67868842424242
 6 -2.40953437203720 -0.63159491869187  0.90699276157616
 6 -2.34415438123812  0.89693984278428  1.03732589508951
 6 -3.76693295619562  1.41338142334233  0.88503327802780
 6 -1.74602088778878  1.13732552845285  2.55671023382338
 6 -1.49151790019002 -1.07654021742174 -0.37005567926793
 6 -0.11358947724772 -1.11161286788679 -0.01090201670167
 6  0.90615169436944 -1.29005624252425 -1.10742891669167
 8  0.74688475657566 -0.98100071257126 -2.19001999219922
 8  1.94276456305631 -2.07602790139014 -0.73789871237124
 7 -6.59051079327933  2.64769513951395  0.29017276517652
 6 -5.49930049094910  3.24635327852785  0.74892118831883
 6 -5.69294350955095  4.76420610541054  0.74891976057606
 6 -7.05415612901290  4.91412750325033  0.46784336763676
 6 -7.67383908780878  3.56262507090709  0.16826165756576
 6 -4.61872679297930  5.84508193869387  0.83769143714371
 6 -7.84546610791079  6.19245616571657  0.44207373107311
 8 -7.29525344154415  7.19619123572357  0.39333719051905
 7 -8.78121167466747  0.68610947014701 -0.34913756285629
 6 -9.31440511291129  1.90337507280728 -0.54724577687769
 6 -10.85812244254426  1.62323219431943 -0.77288306950695
 6 -11.14411876937694  0.16223712811281 -0.72766362186219
 6 -9.69149081238124 -0.34197236043604 -0.45733781048105
 6 -11.85802257755775  2.70647684078408 -0.93566821762176
 6 -12.30691381188119 -0.65088865116512 -1.08638677237724
 6 -12.45824268636864 -0.98957112231223 -2.57664045874587
 7 -6.95612209510951 -1.37466002730273  0.00741809730973
 6 -8.25025768736874 -2.24660465716572 -0.27731092909291
 6 -7.67443502860286 -3.59610693309331 -0.29697070717072
 6 -6.26704232543254 -3.65970513141314 -0.03200146074607
 6 -6.01946823552355 -2.24799361386139  0.31886807110711
 6 -8.37482600610061 -4.78296567436744 -0.74022683858386
 6 -5.22730893539354 -4.43945974407441  0.26114414011401
 8 -5.03256500520052 -5.57500803910391  0.22547305390539
 6 -3.98542226762676 -3.38412897209721  0.45583023022302
 6 -3.39027253815382 -3.73751992749275  1.89087880088009
 8 -3.99514475457546 -3.60248698349835  2.94992366216622
 8 -1.96776845174517 -3.88094439973997  1.60858079727973
 6 -1.19801832393239 -4.08329341944194  2.84734916011601
 6  2.90638253105311 -2.36159133603360 -1.49957120122012
 6  4.15161892929293 -1.42865986708671 -1.23276880918092
 6  5.24063481888189 -1.28451532293229 -2.09331553315332
 6  5.40973495729573 -1.96011914661466 -3.37252423462346
 6  6.23413723832383 -0.13689134203420 -1.72602916141614
 6  7.40287898189819 -0.83930971307131 -1.18022475977598
 6  8.49711227152715  0.43541917651765 -0.75196367686769
 6  9.87419050845085 -0.30659758005801  0.06146784108411
 6  9.39164668096810 -0.86510532523252  1.58258262706271
 6  10.90054238423842  0.75506036023602  0.20968580698070
 6  12.31352662316232 -0.09810850365037  0.65429374057406
 6  13.52214375697570  0.97944521922192  0.51431432983298
 6  14.74529086428643  0.32273555165517  0.79469413151315
 6  15.10588557665767 -0.20772305280528  2.24635455945595
 6  15.82685231363136  1.48524342634263  0.72593579887989
 6  17.09811929002900  0.91703692809281  0.19489261536154
 6  18.32009155655566  2.04101129232923 -0.15814596139614
 6  19.69622182328233  1.16978547334733 -0.52054213791379
 6  19.41424122542254  0.48100353065307 -1.95323111431143
 6  20.80877804670467  2.13641505950595 -0.30167526342634
 1 -3.38494913321332  3.84228547954796  0.88347774947495
 1 -9.47557153965396  4.03709279437944 -0.25661929582958
 1 -10.31977446904690 -2.37428782808281 -0.57501032693269
 1 -2.43530604740474 -1.39303692149215  1.72901294959496
 1 -1.78435777437744  1.31070154635464  0.14447090049005
 1 -0.87724910861086  0.90546886128613  2.61611232233223
 1 -1.91833000690069  2.11678025442544  3.10324644244424
 1 -2.35920825332533  0.56786467176718  3.33043891299130
 1 -2.03615263556356 -2.32193346634663 -0.60935872267227
 1 -1.89901507050705 -0.50584205710571 -1.54759455025503
 1  0.44437243554355 -0.11950338363836  0.37164302950295
 1  0.06134241444144 -2.10544687848785  0.82061229332933
 1 -3.82000653105310  5.99296712461246  0.23785874357436
 1 -5.47301758235824  6.75680835673567  1.06992389848985
 1 -4.22050307850785  5.76749571057106  1.62541031333133
 1 -8.84361737583759  6.05778088728873  0.27496112031203
 1 -12.49164871847185 -1.56122699019902 -0.43910833803380
 1 -13.41765798079808 -0.36181978217822 -0.44883251965196
 1 -12.82446026912691 -2.09107122252225 -2.82278939603960
 1 -12.79997696149615  0.15828324982498 -3.43097526702670
 1 -11.25767259165917 -1.39782309930993 -2.65855246264627
 1 -8.96369555285529 -4.59938649424942 -1.43393562156216
 1 -7.22234744934494 -5.57574758735874 -1.08938859075908
 1 -9.11801908190819 -5.45797775897590  0.01476608610861
 1 -3.28358794019402 -3.51531525642564 -0.36104441124112
 1  2.92876449184919 -3.57145441924192 -1.34579029612961
 1  2.50752504130413 -1.97972388738874 -2.53790402570257
 1  3.87164449214922 -0.64003675207521 -0.51994839323932
 1  4.66612966996700 -1.56538001050105 -4.01613172817282
 1  6.37280085848585 -1.82736141154115 -3.42801402530253
 1  5.21410523792379 -3.02716533083308 -2.94737892169217
 1  6.44553497539754  0.51500683808381 -2.76686930413041
 1  5.95377048644864  0.49716526432643 -1.07075133853385
 1  7.45970714961496 -1.44116231333133 -0.65233351175118
 1  8.10335573397340 -1.91392018231823 -2.06828630453045
 1  8.84539667106711  0.94884547934794 -1.53540632593259
 1  7.74155265336534  1.38077326552655 -0.29728402000200
 1  9.84827727482748 -1.30218766246625 -0.62907006460646
 1  8.48788103240324 -1.33817263296330  1.40794915571557
 1  10.49175524492449 -1.56472035323532  2.01628351975198
 1  9.25307851945194  0.11120989858986  2.11798310341034
 1  10.96115975377538  1.39435219511951 -0.60988816041604
 1  10.34346409300930  1.13526240184018  0.99524340464046
 1  12.32599014121412 -0.15228766826683  1.75729941324132
 1  12.37679983398340 -1.06617483808381 -0.10085308280828
 1  13.70575544554456  1.69984952995299 -0.13850275487549
 1  13.18389043384338  1.78645289658966  1.28117390679068
 1  15.05501692749275 -0.33533104910491 -0.05746393759376
 1  15.06586648654866  0.55114551005100  3.06656942994299
 1  14.46934420792079 -1.27150482238224  2.76985448354835
 1  16.26082311541154 -0.80042362546255  2.12620909860986
 1  15.21398253315331  1.98256825022502 -0.41137111181118
 1  15.44127816041604  2.40953048854885  1.35241356455646
 1  17.42631394649465  0.35215838643864  1.13002318901890
 1  16.87499502370237  0.31266943614362 -0.47084846224622
 1  17.95181018811881  2.42206875467547 -0.94918790709071
 1  18.49081907800780  2.72851675857586  0.70819749024903
 1  19.76184874607461  0.30788363456346  0.31484483528353
 1  19.24558287628763  1.27409245884588 -2.86544867006701
 1  20.39478376837684 -0.38745054685469 -2.59834396779678
 1  18.70422314931493 -0.51795951435143 -2.19931800650065
 1  20.62591937053705  2.81818139723972  0.46847760136014
 1  21.92187992829283  1.47964454715471  0.07902518751875
 1  21.02437909080908  2.87825531273127 -0.90888568486849
 1 -0.21819744484449 -4.79100184958496  2.45752410041004
 1 -1.64435411641164 -4.91100837453746  3.42154279087909
 1 -1.01989600290029 -3.24669314641464  3.62514666786679
 8 -11.84818319261926  3.89784458365837 -0.85323713741374
 1 -12.85005551705171  2.16187742784278 -1.29714031903190

