%nproc=4
%Mem=2GB
# td=(NStates=1) iop(3/107=0140000000,3/108=0140000000) iop(3/107=0140000000,3/108=0140000000) CAM-B3LYP/6-31G(d,p) 

TD

0 1
12 -6.91464403650365  0.71779092319232  0.19203682318232
 6 -4.45799290579058 -1.98443686548655  0.52036231323132
 6 -4.49064087948795  2.78705033813381  1.07242012361236
 6 -9.01841454615462  3.14258828292829 -0.17991749344934
 6 -9.21230932853285 -1.88131116071607 -0.82207226592659
 7 -4.76238131003100  0.48252765046505  0.67290632273227
 6 -3.95919318491849 -0.66028573537354  0.64775533093309
 6 -2.58622204080408 -0.22890464966497  1.04671673397340
 6 -2.57222718851885  1.28764891369137  1.40207236973697
 6 -4.01636789968997  1.66238632383238  1.09388416311631
 6 -2.17814410011001  1.41468326422642  2.95949051185118
 6 -1.58918766716672 -0.60944350775077 -0.15206388008801
 6 -0.33319143744374 -1.14578628522852  0.42252132563256
 6  0.73743482268227 -1.12536977387739 -0.72084025782578
 8  0.81273134123412 -0.53693630613061 -1.83042403260326
 8  1.81444173077308 -1.89279957855786 -0.28548347084708
 7 -6.82260400260026  2.61354172417242  0.28810255815582
 6 -5.83265382628263  3.34415305850585  0.70314661086109
 6 -6.15513972917292  4.84325401020102  0.77552242084208
 6 -7.51290200360036  4.85975206570657  0.39755633893389
 6 -7.89822152605261  3.42793160156016  0.12230706210621
 6 -5.31715663596360  5.81624905540554  1.28926659465947
 6 -8.41427298859886  6.03706062616262  0.31418094179418
 8 -7.97046096229623  7.20869248584858  0.61979983678368
 7 -8.84200775427543  0.58473933313331 -0.32930557965797
 6 -9.55751942434243  1.65556029132913 -0.52965401770177
 6 -10.86338296859686  1.33351322242224 -1.05150093129313
 6 -10.95913027052705 -0.01190028562856 -1.07370822632263
 6 -9.53788545184518 -0.50731889508951 -0.81463354005401
 6 -11.97374414971497  2.36179237233723 -1.17043169396940
 6 -12.11472459295929 -0.85143870617062 -1.41029916361636
 6 -12.42849971207121 -1.30691285648565 -2.96830962566257
 7 -6.98323480638064 -1.41662422372237 -0.10839348384838
 6 -7.88509117071707 -2.30204020072007 -0.57193039103910
 6 -7.36846443154315 -3.67354467686769 -0.59321033113311
 6 -6.03271889308931 -3.58843800470047 -0.13681194179418
 6 -5.81445773447345 -2.14748356285629  0.21242742704270
 6 -8.03039156265627 -4.92032941074107 -1.08518133403340
 6 -4.91548775327533 -4.39464526262626  0.11164919061906
 8 -4.57202895159516 -5.51023156145615 -0.12404189758976
 6 -3.79250297569757 -3.19969052825282  0.42050669786979
 6 -3.35489900080008 -3.52268844434443  1.79027874087409
 8 -3.84395963606361 -3.95976271107111  2.77473614341434
 8 -1.83456513141314 -3.25807211251125  1.77905784498450
 6 -0.98879740184018 -3.67575266536654  3.15941036623662
 6  2.99781167396740 -2.17787296419642 -1.07891913601360
 6  3.98691245864587 -1.16956395749575 -0.70613614591459
 6  5.03021377677768 -0.95458232963296 -1.54482068366837
 6  5.09368335213521 -1.46893002770277 -2.96192317451745
 6  6.00938476307631  0.03345569266927 -1.17078363686369
 6  7.44691338533853 -0.54661044314431 -0.94454119141914
 6  8.54079663996399  0.39257489208921 -0.33072155265527
 6  9.75940903030303 -0.39783670397040  0.12644433873387
 6  9.74518203450345 -1.26800561526153  1.37204157295730
 6  10.99428175817582  0.74770962516252  0.09475431383138
 6  12.36706197669767 -0.11759045184518  0.25036334753475
 6  13.51728327092709  0.94456173087309  0.41044394279428
 6  15.01937827302730  0.09655293339334  0.41159582168217
 6  15.17665265336534 -0.80834311481148  1.65148507250725
 6  16.14763439183918  1.26808171017102  0.16642984828483
 6  17.37671714981498  0.40700592499250  0.02972609870987
 6  18.69487903530353  1.57504469566957 -0.25400554735474
 6  19.95371757285729  0.91647014181418 -0.51744182788279
 6  20.15119492079208  0.06493192349235 -2.03371916311631
 6  21.08852602150215  2.05407682568257 -0.72199729562956
 1 -3.89700033833383  3.76934818581858  1.54303370507051
 1 -9.59639362186219  4.15708479357936 -0.52045567946795
 1 -9.91543403500350 -2.47555795509551 -1.08977180308031
 1 -2.19705222202220 -0.75929354715471  1.89317936623662
 1 -1.79953929252925  2.19673014921492  0.86895334873487
 1 -0.97073845754575  1.33720203460346  3.07067777887789
 1 -2.51895006890689  2.24433300970097  3.66229234703470
 1 -2.91745407790779  0.82202008730873  3.65884175327533
 1 -2.15737475777578 -1.22901417441744 -1.02882066886689
 1 -1.08489365836584  0.38585711281128 -0.78276806760676
 1 -0.02760476217622 -0.59679111241124  1.34435030023002
 1 -0.34754847464746 -2.40446678047805  0.67247747984799
 1 -4.32451698209821  6.23781160906091  1.05299025672567
 1 -5.35524580518052  6.92158483438344  1.11989889598960
 1 -5.42706373457346  5.88487744874487  2.33647141944194
 1 -9.65929894399440  5.69074418361836  0.04828845304530
 1 -12.16898645224522 -1.88060892839284 -0.98990341754175
 1 -13.34365058005801 -0.37500110031003 -0.76741437783778
 1 -13.39064688778878 -1.76592870827083 -3.01815893299330
 1 -12.44687165096510 -0.19784236273627 -3.27644981448145
 1 -11.71772859725973 -2.02884620162016 -3.45515212261226
 1 -8.43255243854385 -4.68253480908091 -2.14171639963996
 1 -7.40000521512151 -5.98679869246925 -1.08129778167817
 1 -8.86496377637764 -5.22531449264926 -0.37206259675967
 1 -3.05332491389139 -3.44119784468447 -0.57976628342834
 1  3.13491510691069 -3.32541981578158 -1.04595031213121
 1  2.69546383518352 -2.15147106210621 -2.21443167846785
 1  3.83421074877488 -0.73190593899390  0.40643424502450
 1  3.95174823182318 -1.15965943844384 -3.85554566956696
 1  6.24536811521152 -1.04032270767077 -3.81670289418942
 1  5.26572039943994 -2.76162877717772 -2.78368255205521
 1  6.45770619251925  0.76168150555056 -2.27439005620562
 1  5.70271538093809  0.62167771557156 -0.27431169456946
 1  7.31139231813181 -1.29451764886489 -0.16791506990699
 1  7.95540093849385 -1.14440323062306 -1.89918939483948
 1  8.66208834023402  1.39293988878888 -1.22860564586459
 1  8.45882438053805  0.76780196839684  0.70786649504951
 1  10.19839228632863 -1.23843128682868 -0.80031718931893
 1  9.05384762906291 -1.72232104780478  1.06045440624062
 1  10.55826189558956 -1.64002788398840  1.74147603900390
 1  9.59513272487249 -0.68990021242124  1.96892819791979
 1  10.99789342714271  1.27264002390239 -0.96260343194319
 1  10.75111485808581  1.62697157275728  1.01380526082608
 1  12.53330087228723 -0.59605204470447  1.34195787908791
 1  12.61059321332133 -0.78231645224522 -0.59974297179718
 1  13.37702257225723  1.52919246424643 -0.32663156775678
 1  13.39805184998500  1.48263251455145  1.42459824922492
 1  14.87078850465047 -0.56648416441644 -0.69833802500250
 1  15.02000190009001 -0.33340294479448  2.59001177417742
 1  14.43285055855585 -1.66879455135514  1.78502600070007
 1  16.26059309240924 -1.39775335843584  1.70955743344334
 1  15.58470960586058  1.80835082848285 -0.78957893259326
 1  16.07801183378338  2.21530106560656  1.01170949414941
 1  17.46855817091709 -0.35588241764177  0.93179336603660
 1  17.61378890309031 -0.08353018381838 -1.12887426482648
 1  18.25787079417942  2.22014856265627 -1.00176316461646
 1  18.71200119621962  2.02867677457746  1.01488815931593
 1  20.40647320852085  0.14280712691269  0.08042139293929
 1  20.04197251525152  1.00174522412241 -3.05004712991299
 1  21.18027231723172 -0.89793159495950 -2.29347348074808
 1  19.55001772877288 -0.53820153855386 -2.08290636533653
 1  20.91718849744974  2.52038161726173  0.11945269886989
 1  22.14097183748375  1.83686026872687 -0.80739345434544
 1  20.71740839373937  2.92651013821382 -1.54171896819682
 1  0.39913428832883 -3.53779652905290  2.78521686968697
 1 -1.33985366636664 -4.90689796349635  3.10139077567757
 1 -1.11694570787079 -2.56879535663566  3.90125427862786
 8 -11.86918529282928  3.55329012821282 -1.05596741044104
 1 -13.15022553405340  1.87551879197920 -1.15432603760376

