%nproc=4
%Mem=2GB
# td=(NStates=1) iop(3/107=0140000000,3/108=0140000000) iop(3/107=0140000000,3/108=0140000000) CAM-B3LYP/6-31G(d,p) 

TD

0 1
12 -6.83748632073207  0.56612575667567  0.08698631813181
 6 -4.72294940144014 -2.18051647344734  0.45994627162716
 6 -4.29998181358136  2.68163979707971  0.89698257985799
 6 -8.96490919561956  3.32740676477648 -0.22957245894589
 6 -9.38431652925293 -1.64266729632963 -0.59847990669067
 7 -4.81051612351235  0.29962936063606  0.73828286038604
 6 -4.14470173577358 -0.91653135993599  0.67250780618062
 6 -2.58862228082808 -0.68676043524352  1.24578664096410
 6 -2.57880784658466  0.80550069886989  1.50967312981298
 6 -3.98578484138414  1.37103718891889  1.07827260196020
 6 -2.37846413211321  1.26818861476148  2.78885344814481
 6 -1.54288303670367 -1.01301386478648  0.11217254355436
 6 -0.08353647194720 -1.14012571917192  0.63032210571057
 6  1.03120419961996 -1.17778501540154 -0.51654982878288
 8  1.03239330743074 -0.69586219871987 -1.60187117731773
 8  1.93451373797380 -2.07254755335534 -0.12712763526353
 7 -6.58983072527253  2.64405477547755  0.28124187208721
 6 -5.53551411231123  3.29375801900190  0.68807510371037
 6 -5.89571378657866  4.71279096389639  0.70714558315832
 6 -7.14554526792679  4.90966705720572  0.42812939623962
 6 -7.74422612651265  3.47941675007501  0.10068489988999
 6 -4.91103602390239  5.69305673617362  1.08289595759576
 6 -7.84218577987799  6.25069198929893  0.35144466816682
 8 -7.37802171837184  7.25184680128013  0.52409026582658
 7 -8.79426297979798  0.79382024122412 -0.36927957705771
 6 -9.60927459985999  1.92315705100510 -0.31118217051705
 6 -10.90846747704770  1.66788665976598 -0.90821660286029
 6 -10.91618597609761  0.29225012941294 -1.06458731423142
 6 -9.67823948724872 -0.27022518571857 -0.59135121182118
 6 -11.90308708400840  2.70001619471947 -1.34411906270627
 6 -12.03238635913591 -0.38456201850185 -1.66300443414341
 6 -11.90434729682968 -0.59834199939994 -3.18896169086909
 7 -6.94857134003400 -1.39392195349535 -0.00314295879588
 6 -8.07041970357036 -2.14122411911191 -0.41623482148215
 6 -7.63796138123812 -3.55481280368037 -0.42049305940594
 6 -6.33675929712971 -3.68079724062406 -0.14441270187019
 6 -5.95626191489149 -2.29040785528553  0.00944712901290
 6 -8.41932045554555 -4.82109948774877 -0.82929574547455
 6 -5.21260746524653 -4.60284608270827  0.05356338203820
 8 -4.82992474117412 -5.75786632493249 -0.09190868426843
 6 -3.93098682408241 -3.50001056025603  0.46983163036304
 6 -3.37795130603060 -3.81053722922292  1.75067478047805
 8 -3.93492873297330 -4.13825055985599  2.86319498929893
 8 -2.19743141804180 -3.88207451275128  1.69606954615462
 6 -1.48486700880088 -4.15165025512551  2.90027445264526
 6  3.03242513531353 -2.38563374027403 -1.04439568366837
 6  4.07997176457646 -1.44129113021302 -0.75831136343634
 6  5.15822657805781 -1.08069494089409 -1.62360856245625
 6  5.46424040784078 -1.75123825852585 -2.97172415461546
 6  6.17542136673667  0.01078342544254 -1.22410896939694
 6  7.42276097009701 -0.62314809690969 -0.72654939223922
 6  8.50068262856285  0.24745037963796 -0.46101458195820
 6  9.81499458885889 -0.27341426172617  0.12533422772277
 6  9.63216073237324 -0.85300411511151  1.49095346414641
 6  10.99888221822182  0.67468232243224  0.07225206360636
 6  12.42663793429343 -0.13673236603660  0.35714402560256
 6  13.47735927852785  0.92281955665567  0.26024892329233
 6  14.83588992419242  0.35602888098810  0.31214587668767
 6  15.13252824092409 -0.34848712921292  1.63191311531153
 6  15.96541617001700  1.39954485648565  0.13626683198320
 6  17.28980845894590  0.74344956935694 -0.34088096199620
 6  18.46582613001300  1.81995918711871 -0.30151029782978
 6  19.82535473657366  1.30740923572357 -0.63757384108411
 6  19.82447224852485  0.46543197349735 -1.91981777297730
 6  20.78881605050505  2.47927934593459 -0.67877297319732
 1 -3.39821045934593  3.66674792579258  1.10919032073207
 1 -9.65014899739974  4.36799588468847 -0.72499613351335
 1 -10.09690218181818 -2.33520391969197 -0.67408023392339
 1 -2.64378689548955 -1.36319393719372  2.13827387568757
 1 -1.84775411401140  1.09766024222422  1.05002145554555
 1 -1.39273065676568  0.79136745114511  3.05371608270827
 1 -2.37126530043004  2.09840841724172  3.31872799059906
 1 -3.06363869636964  0.53011089638964  3.40073594269427
 1 -1.82660168046805 -1.84700597359736 -0.47175496229623
 1 -1.72273744274427 -0.36876834973497 -0.81542133293329
 1  0.25138313661366 -0.14166559985999  1.08252411761176
 1 -0.08469218901890 -2.07894422822282  1.15442567466747
 1 -4.18872340274027  6.04371219911991  0.17816277397740
 1 -5.60438071867187  6.73146582248225  1.43620052615261
 1 -4.08922995119512  5.44128308930893  1.96313408570857
 1 -8.92986600070007  6.18397350655065 -0.17859423522352
 1 -12.26021557515752 -1.36569743724372 -1.27789221642164
 1 -13.11695791079108 -0.11546514671467 -1.23112074847485
 1 -12.87403522662266 -1.03873598899890 -3.33024014111411
 1 -11.87372433623362  0.03083050455045 -3.95618778827883
 1 -11.12457928232823 -1.08013133013301 -3.18017462486249
 1 -8.74299348264826 -4.58376493209321 -1.48104033203320
 1 -7.73056827142714 -5.83333334593459 -1.01199085098510
 1 -9.23415069506951 -4.79714167536754 -0.44061945244524
 1 -3.00574015541554 -3.29502322722272 -0.08879718651865
 1  3.34942655805581 -3.24557183098310 -0.64900061716172
 1  2.37176146494649 -2.13501941694169 -2.07871810711071
 1  4.10926825452545 -0.58758150655066  0.34814841644164
 1  4.66216927392739 -1.48378185068507 -3.46326644164416
 1  6.61594517291729 -1.48668734413441 -3.53008423232323
 1  5.30013384078408 -3.12871548584858 -2.85922010581058
 1  6.21823224512451  0.37524286168617 -2.18224084128413
 1  5.70209531893189  0.68532408020802 -0.29582384578458
 1  7.34807598649865 -1.13523172027203  0.32554427602760
 1  7.72651805020502 -1.42355114541454 -1.24894437033703
 1  8.70117224862486  0.66360695549555 -1.34770755605561
 1  8.26087458555856  1.28921410961096 -0.03619791139114
 1  9.78978142524252 -1.38712615631563 -0.60654781238124
 1  8.82457470177018 -1.75786460216022  1.45132349314932
 1  10.15422149154915 -1.49554343554355  2.10632252365237
 1  9.57662087368737 -0.26167739013901  1.84610591569157
 1  11.12924656245625  1.24773753365337 -0.91085825742574
 1  10.76417616421642  1.22180105570557  0.94970885118512
 1  12.23237077927793 -0.65646808630863  1.06703038633863
 1  12.45299745374538 -1.03858207880788 -0.29175217271727
 1  13.38253312331233  1.44769431443144 -0.89394829942994
 1  13.37933997879788  1.59270352165217  1.20301609100910
 1  14.92257368316832 -0.27775529152915 -0.45412360356036
 1  15.09796969686969  0.17431782728273  2.56680945394539
 1  14.42057933143314 -1.54311198309831  1.66554405250525
 1  16.16553358645865 -0.41561514461446  1.18794527222722
 1  15.65946708160816  2.12842283568357 -0.91699167386739
 1  16.14671870447045  1.94946448194819  1.06723504670467
 1  17.56241755685569 -0.15609243864386  0.07025721242124
 1  16.93821134533453  0.38631680088009 -1.58797017441744
 1  18.49078408550855  2.77093364116412 -1.00059304760476
 1  18.30397039313932  2.30168407530753  0.88876554705471
 1  20.13782634383438  0.73058590479048  0.18781213201320
 1  20.02914123212321  1.04936998659866 -2.86487861306131
 1  20.70845513551355 -0.00770257205721 -1.80406453985399
 1  19.03133586058606 -0.09330704910491 -2.21754982968297
 1  20.34666144474447  3.13098267736774  0.12042279587959
 1  21.83907164746475  2.06736331903190 -0.46276899189919
 1  20.67808446134613  3.16042352955296 -1.69845464176418
 1 -0.53471909700970 -5.10162291169117  2.15598394639464
 1 -2.49693937493749 -4.77482475617562  3.69373000960096
 1 -0.93687770107011 -2.74926340344034  3.17877203040304
 8 -11.85999437373737  3.94107890709071 -1.12415422912291
 1 -12.71653216471647  2.23967520762076 -1.70649125412541

