%nproc=4
%Mem=2GB
# td=(NStates=1) iop(3/107=0140000000,3/108=0140000000) iop(3/107=0140000000,3/108=0140000000) CAM-B3LYP/6-31G(d,p) 

TD

0 1
12 -6.82536510861086  0.60526967106711  0.27759537903790
 6 -4.45760286678668 -1.97388581038104  0.47941821882188
 6 -4.34200601600160  2.85322695579558  0.96026890849085
 6 -9.13331603630363  3.14536856095610 -0.21405090679068
 6 -9.32197029462946 -1.92048507810781 -0.67885794449445
 7 -4.80048512041204  0.43831322902290  0.76475550765076
 6 -4.11086835243524 -0.77853756055606  0.74525508090809
 6 -2.52945636423642 -0.35397715691569  1.08986104840484
 6 -2.51027099289929  1.10014016281628  1.33170533303330
 6 -4.03883014591459  1.50600068526853  0.96053082778278
 6 -2.19042532823282  1.40657245314531  2.76134069686969
 6 -1.62324107250725 -0.69309187258726 -0.24089276297630
 6 -0.24431254955496 -0.91764347094709  0.27461653515352
 6  0.74748582778278 -1.10964820172017 -0.87246542034203
 8  0.82172224032403 -0.36284889738974 -1.90629161936194
 8  1.70082036863686 -1.88993929252925 -0.47765268776878
 7 -6.82996473867387  2.60822119211921  0.34160790869087
 6 -5.67941850275028  3.31143978717872  0.67812410861086
 6 -5.87686190139014  4.94851453625362  0.58968383698370
 6 -7.34601531493149  4.85067115761576  0.32933951725173
 6 -7.80794249814982  3.53540234863486  0.14198903030303
 6 -4.83649857015702  6.06601403190319  0.92430009800980
 6 -8.01279284058406  6.16012293239324  0.16305582928293
 8 -7.49157307350735  7.32334395099510  0.22204006080608
 7 -8.82368592209221  0.58454931413141 -0.36989963906391
 6 -9.66021969436944  1.60037477277728 -0.53732478477848
 6 -10.91033766406641  1.39619949104911 -0.88128390959096
 6 -10.95366972447245  0.10211111551155 -0.90490134563456
 6 -9.71667333063306 -0.50933909710971 -0.61899397609761
 6 -11.89920669596960  2.29636582968297 -1.08939359015902
 6 -12.19351247174717 -0.76937049934993 -1.31671980568057
 6 -12.29236609870987 -0.92725489068907 -2.75796859155916
 7 -6.98217470037004 -1.57375993729373  0.06951430693069
 6 -8.03603626522652 -2.40864086078608 -0.29897309530953
 6 -7.53687127222722 -3.74577189958996 -0.32926393649365
 6 -6.07329295049505 -3.64491365226523 -0.13047130773077
 6 -5.82600888958896 -2.25701451595160  0.10078626292629
 6 -8.27679620312031 -4.92884026182618 -0.64980779667967
 6 -4.99356556105611 -4.31179697779778  0.07873589928993
 8 -4.70288203690369 -5.61429196749675  0.00607111371137
 6 -3.77833155855586 -3.37480804000400  0.39972461966197
 6 -3.20408391929193 -3.71255743124312  1.85190490349035
 8 -3.84040928102810 -3.91776851165117  2.75488415821582
 8 -1.86922859775978 -3.73808011331133  1.61845178437844
 6 -1.12160068216822 -4.04708979907991  2.94840926612661
 6  2.83336522932293 -1.93307848474847 -1.35163640774077
 6  4.14281804920492 -1.29932693379338 -0.84429996229623
 6  5.13002375777578 -0.90777764916492 -1.71442764436444
 6  5.27236121992199 -1.34556769146915 -3.10956793899390
 6  6.20330415501550  0.01813416051605 -1.33467002550255
 6  7.46250494449445 -0.53406918901890 -0.90579731703170
 6  8.50270283058306  0.28824445904590 -0.13395187568757
 6  9.81577466686669 -0.43517043734373  0.21547324162416
 6  9.76509402570257 -0.96308512321232  1.47693206200620
 6  10.98207053705371  0.61276613081308  0.15523036143614
 6  12.42173744424442 -0.13556224902490  0.25450376157616
 6  13.44151569416942  1.00715799049905  0.46042894129413
 6  14.81004733993399  0.17492077017702  0.41586624872487
 6  15.11004599269927 -0.67410969146915  1.73322324632463
 6  15.97824745314531  1.22841774377438  0.20378358365837
 6  17.24627410551055  0.68792401680168 -0.07199407330733
 6  18.41485103250325  1.61054824602460 -0.29724987178718
 6  19.75644784588459  0.90437893269327 -0.59831991569157
 6  19.95516531783178  0.29974540484048 -1.99747553875388
 6  21.08298546744675  1.88760017801780 -0.27098219411941
 1 -3.54734537283728  3.58112936393639  1.02272167386739
 1 -9.58569255175517  4.11662074717472 -0.51526516041604
 1 -10.46303879547955 -2.54348474777478 -0.79104193009301
 1 -1.92506502330233 -0.78255587338734  2.10676072437244
 1 -1.95649498809881  1.49866034223422  0.87440389378938
 1 -1.20537192089209  1.17717603200320  2.75585629672967
 1 -2.09533770767077  2.30590916731673  3.07262338013801
 1 -3.01564389688969  0.90652853815382  3.82451832093209
 1 -2.05538455875588 -1.58823009600960 -0.97546533333333
 1 -1.42174734373437  0.30275880298030 -1.23331312211221
 1  0.10914891319132 -0.43731516481648  1.14224008920892
 1 -0.66350006980698 -1.96437277107711  0.98135836793679
 1 -4.16723125352535  6.13343117101710 -0.38146318861886
 1 -5.42659293989399  7.14417709360936  0.90080698679868
 1 -4.24887591579158  5.66982594359436  2.07037480978098
 1 -9.08929194329433  5.99777488668867 -0.18613498929893
 1 -11.98468802240224 -1.64564543204320 -0.55031945914591
 1 -13.31253746874687 -0.27577117731773 -1.29212684908491
 1 -12.87751557465747 -1.85559767516752 -2.86892400950095
 1 -12.48520548434844 -0.23190576907691 -3.28604077357736
 1 -11.65029185358536 -1.69131244824482 -3.19366597399740
 1 -8.76894607790779 -4.69901645724572 -1.73674590259026
 1 -7.37014222882288 -5.78315832843284 -1.14843449534953
 1 -9.08596587658766 -5.40816277747775  0.07239184868487
 1 -3.11574115551555 -3.75554927982798 -0.32339064586459
 1  3.30830244564456 -2.88851612541254 -1.33382910001000
 1  2.25886017481748 -1.85934184918492 -2.41397163246325
 1  4.11976930463046 -1.01400414881488  0.21532513411341
 1  4.40245330233023 -0.69953342584258 -3.65958607360736
 1  6.29389296769677 -0.94342301770177 -3.49399062296230
 1  4.75311913931393 -2.51114372867287 -3.50469465326533
 1  6.11216163806381  0.65029036643664 -1.94346696389639
 1  5.96446155555556  0.77845339313931 -0.52197646104610
 1  7.15475665456546 -1.45759395649565 -0.35905418381838
 1  7.85924132253225 -0.92764155445545 -1.84573404930493
 1  8.73557568896890  1.21976257105711 -0.76980976627663
 1  8.22812131023102  0.64055924412441  0.57783349174917
 1  10.25187763486349 -1.25484292799280 -0.42136929452945
 1  8.89548179247925 -1.31644045974597  1.84886324712471
 1  10.45873194259426 -1.57477135833583  1.59885177657766
 1  9.95475868746875  0.06955573317332  2.21557286238624
 1  10.81981561936194  1.19931269116912 -0.76580375197520
 1  11.01222096869687  1.58866774237424  0.99147302760276
 1  12.38939648184818 -1.12135457495749  1.29217290059006
 1  12.45497765176518 -0.25277349794979 -0.93849684718472
 1  13.56394126412641  1.74169371437144 -0.19314821942194
 1  13.36621866666666  1.26798104940494  1.77069285868587
 1  14.87315874167417 -0.68123563956396 -0.70994918611861
 1  14.93459335923592 -0.15700530503050  2.73358613161316
 1  14.41399867336733 -1.69201687358736  1.99622712081208
 1  16.01859889298930 -1.24503808690869  1.75443192089209
 1  15.59657079197920  2.03534352775277 -0.37094706940694
 1  16.30406443904390  2.05994553005300  0.96149447264726
 1  17.49552086718672 -0.41855868526853  0.66918710541054
 1  16.84810233443344 -0.06036786758676 -1.00432180958096
 1  17.85257026412641  2.23839038683868 -0.90461344964496
 1  18.40597059315932  1.96599050595059  0.79640631113111
 1  20.16751931313132  0.00700354655466  0.02868621942194
 1  19.71636995499550  1.15762081168117 -2.85000712591259
 1  21.11368565856586 -0.10675247704771 -1.83736787018702
 1  19.13000572757276 -0.31803952235224 -1.68811688638864
 1  21.03835061366136  2.28347792689269  0.58602935653565
 1  21.79241698199820  1.62290887358736 -0.66159887488749
 1  20.93744039693969  2.69510699789979 -0.70448524482448
 1  0.05494986988699 -4.25554830423042  2.76482483048305
 1 -1.47461714271427 -5.16309358305831  3.17611824842484
 1 -1.69571358465847 -2.96715519261926  3.57243139633963
 8 -11.88142651695170  3.57034183338334 -0.99386119981998
 1 -12.41529204070407  1.84656589668967 -1.94949555455546

