%nproc=4
%Mem=2GB
# td=(NStates=1) iop(3/107=0140000000,3/108=0140000000) iop(3/107=0140000000,3/108=0140000000) CAM-B3LYP/6-31G(d,p) 

TD

0 1
12 -6.84264683678368  0.58796794089409  0.24537215671567
 6 -4.53710081658166 -1.96785520732073  0.51634191119112
 6 -4.45956777217722  2.88721035413541  1.09352223382338
 6 -9.16114881958196  3.11364538863886 -0.11831133283328
 6 -9.30520861846185 -1.89967299689969 -0.43177323602360
 7 -4.95242031393139  0.44176357405741  0.54849388148815
 6 -4.09300656625663 -0.66119582638264  0.56589714511451
 6 -2.61561498009801 -0.41901366056606  0.85704776707671
 6 -2.62522248804881  0.97416756555656  1.26260842334233
 6 -4.13189945284528  1.49903998919892  1.05210998569857
 6 -2.18115440114011  1.41190298619862  2.81190575337534
 6 -1.71460020842084 -0.95802836623662 -0.24493316701670
 6 -0.17182530083008 -0.82844455105511  0.21310038353835
 6  0.73470454965497 -0.96356359325933 -1.01873004680468
 8  0.51678174627463 -0.74845745824582 -2.27196818701870
 8  1.96157644424442 -1.58974927352735 -0.54174909740974
 7 -6.81243298549855  2.57778814881488  0.31961570947095
 6 -5.82389295019502  3.26382502570257  0.87807410361036
 6 -6.02444665986599  4.80892057685769  0.60731560016002
 6 -7.28991970537054  4.96869295979598  0.23528011131113
 6 -7.81942364626463  3.43400220862086  0.19027385878588
 6 -4.95386030633063  5.94685211571157  0.82629029702970
 6 -7.99133069436944  6.13543046314631  0.10563008670867
 8 -7.51341525772577  7.23719533613361  0.47369522632263
 7 -8.78706225972597  0.59367022622262 -0.37972062116212
 6 -9.56095976837684  1.71527626292629 -0.46234728702870
 6 -10.99274590489049  1.45237510861086 -0.57221300250025
 6 -11.00930528802880 -0.00470956655666 -0.75401625712571
 6 -9.61010267356736 -0.45931409460946 -0.39456153285329
 6 -12.14177095239524  2.35064125722572 -0.90094474527453
 6 -12.09167228772877 -0.88889245154515 -1.04467260096010
 6 -11.84207106920692 -1.59957212241224 -2.65102789748975
 7 -6.93572005490549 -1.53150571187119  0.15776313181318
 6 -8.12013467506751 -2.35959595629563 -0.34854805280528
 6 -7.44627221232123 -3.77376469886989 -0.37592860296030
 6 -6.15136075727573 -3.66618577947795 -0.14227248784878
 6 -5.93899018771877 -2.12865167966797  0.15643182748275
 6 -8.33680220372037 -4.80317769556956 -0.82857567346735
 6 -4.90767697219722 -4.28743454155416  0.13719174487449
 8 -4.75331708040804 -5.51702224052405  0.31153165976598
 6 -3.75270899629963 -3.36764732393239  0.49512415961596
 6 -3.43411692259226 -3.73505968146815  1.75923563656366
 8 -3.90582582268227 -4.10733746854685  2.73282195199520
 8 -1.97638931383138 -3.53598990429043  1.54704464366437
 6 -1.04649317141714 -3.94408949904990  2.82724714991499
 6  2.96876876967697 -1.80895607250725 -1.43890513461346
 6  4.11884565196520 -0.94072107320732 -1.17505303760376
 6  5.06848760416042 -0.65090196159616 -2.07414361596160
 6  5.11861584538454 -1.15666880158016 -3.46054303650365
 6  6.22289611421142  0.31325367246725 -1.70554711321132
 6  7.38391708570857 -0.54965074717472 -1.08589532683268
 6  8.52522508280828  0.39328496309631 -0.43010149064906
 6  9.85971906130613 -0.36506342664266  0.29710140444044
 6  9.36390390669067 -0.82389120382038  1.89939430823082
 6  11.00822315231523  0.64095895009501  0.10945578397840
 6  12.34440971147115 -0.14777347014701  0.24167247844784
 6  13.64733627622762  0.91696897159716  0.14838773717372
 6  14.97090342554256  0.20044332243224  0.33628829092909
 6  14.92604759285929 -0.47961024152415  1.59332925692569
 6  16.21760138853885  1.16345124712471  0.37364056935694
 6  17.41830130823082  0.41863708810881  0.14240736683668
 6  18.57382693009301  1.57697488868887 -0.14501464826483
 6  20.01593379447945  0.91827032183218 -0.10824090779078
 6  20.32417221852185 -0.20870544024402 -1.51405719691969
 6  20.98093526242624  2.00203162116212 -0.22637773367337
 1 -3.60879151745174  3.50744199519952  1.10624002570257
 1 -9.99866384888489  3.96461554665466 -0.21047468136814
 1 -10.29420191179118 -2.30419081838184 -0.49779260516052
 1 -2.39047156395640 -1.08283590139014  1.88326837513751
 1 -1.89879921852185  1.63592406860686  0.62765921932193
 1 -0.84252563626363  1.32175048944895  3.19260997209721
 1 -2.34997317121712  2.63041161756176  2.75261137893789
 1 -2.75861819431943  0.73084096939694  3.80666653575358
 1 -1.99809883018302 -1.97341861486149 -0.87766555335534
 1 -2.10508567756776 -0.40311178407841 -1.49542933373337
 1  0.54869286758676  0.35023359005901  0.69895576077608
 1  0.03548982918292 -1.56393272707271  1.20842107420742
 1 -4.17683221362136  6.19555738363836 -0.16819186148615
 1 -5.49603988458846  7.03823649954996  0.76785369146915
 1 -4.16049707790779  5.88624758575857  1.96695446774677
 1 -9.20110312441244  6.22076718591859 -0.28492486828683
 1 -12.38437799139914 -1.71223209070907 -0.24122855005501
 1 -13.05685190019002 -0.17567116731673 -1.20086772317232
 1 -12.44805262836284 -2.67416953235323 -2.97719483658366
 1 -12.00960792459246 -0.80430300880088 -3.44809697919792
 1 -11.11237806220622 -2.14518783578358 -2.24723133053305
 1 -8.06268545184519 -5.45472202780278 -1.88034026202620
 1 -7.63015823042304 -5.88406841944194 -0.03915356725672
 1 -9.54505178517852 -4.60474243544355 -0.68958434893489
 1 -3.18316789818982 -3.43200692559256 -0.51038934573457
 1  3.23005462086209 -2.93591086488649 -1.25649136623662
 1  2.57455174397440 -1.62486840184018 -2.48585882118212
 1  4.04332165986599 -0.33767651605160 -0.15052145054506
 1  4.48261131813181 -0.84676814931493 -4.25951606660666
 1  6.00203378177818 -0.64499317471747 -3.88071929582958
 1  5.62042586998700 -2.26202881718172 -3.25956013981398
 1  6.62919334123412  0.70983632103210 -2.38779139633963
 1  5.97032214161416  1.05985153295330 -1.02757702110211
 1  6.71100227912791 -1.08042623972397 -0.21911018941894
 1  7.66156155455545 -1.38551734203420 -1.95815529142914
 1  8.71015314671467  0.78718931373137 -1.52075486078608
 1  7.94970346844685  1.03144833303330  0.11770747914792
 1  10.28120056715672 -1.24151159485949 -0.28369552715272
 1  8.56705895019502 -1.64596341204120  1.83867222802280
 1  10.26211228062806 -1.10819470067007  2.09314120552055
 1  9.07487069866987  0.18332711031103  2.32142344744475
 1  10.87563120092009  1.36456921682168 -0.68550572217222
 1  11.23086283288329  1.17627650325033  0.74844872517252
 1  12.31107865006501 -0.63587602710271  1.39228291159116
 1  12.31805395939594 -0.99197741834183 -0.71384438193819
 1  13.76548141814182  1.48472801780178 -0.75576448104811
 1  13.23297534233423  1.55739999129913  0.87693348274827
 1  15.14757618341834 -0.59866738273827 -0.51305949714971
 1  14.95909580948095 -0.11399100360036  2.55616838983898
 1  14.00902817631763 -1.19289696159616  1.80746824492449
 1  15.53423045614561 -1.17930151325133  1.93355983368337
 1  16.02949408430843  1.87643763716372 -0.32839281398140
 1  16.35731976457646  1.84391392689269  1.17959628282828
 1  17.73514482958296 -0.25641247064706  1.20575076177618
 1  17.12928045224522 -0.02103393419342 -0.56779815721572
 1  18.52864787188719  1.96529307710771 -1.42135512381238
 1  18.33693368946895  2.69987389428943  0.47667433793379
 1  20.34191675287529  0.27970081628163  1.24794814561456
 1  19.95727404540454  0.33382843244325 -2.57960008520852
 1  21.65192948294829 -0.49828162996300 -1.28752288568857
 1  19.61599432643265 -1.02515023342334 -1.33541161586159
 1  20.79773655225522  2.90728030713071  0.84639539313931
 1  21.90391813211321  1.08374495719572 -0.28534124912491
 1  20.78112476537654  2.60834832203220 -1.21901669796980
 1  0.26948132303230 -4.48310105950595  2.55025337333733
 1 -1.72743242424242 -4.70243751745175  3.43337397399740
 1 -0.85653966726673 -2.61551002810281  3.60391454465447
 8 -11.83641201550155  3.57155195439544 -1.23048486218622
 1 -12.93943445494549  1.74982622272227 -1.16276688168817

