%nproc=4
%Mem=2GB
# td=(NStates=1) iop(3/107=0140000000,3/108=0140000000) iop(3/107=0140000000,3/108=0140000000) CAM-B3LYP/6-31G(d,p) 

TD

0 1
12 -6.82492506460646  0.50957010111011  0.03867148664866
 6 -4.42869997649765 -1.98381680348035  0.36950722772277
 6 -4.25642745814581  2.73211484458446  1.06025890749075
 6 -8.96459916461646  3.18191221532153 -0.16907640934093
 6 -9.39603770137014 -1.73101613121312 -0.70425048374837
 7 -4.68719379127913  0.38732813051305  0.62929196129613
 6 -3.96202346794679 -0.84975468226823  0.68259881528153
 6 -2.52134555315532 -0.50269202840284  0.91883394569457
 6 -2.63033299909991  0.93843399219922  1.31459362186219
 6 -3.94531079397940  1.44448453365337  0.87327210191019
 6 -2.31127741344134  1.38846064196420  2.58043260606061
 6 -1.58491724012401 -1.05664822822282 -0.23479215291529
 6 -0.06803492179218 -1.25502720932093  0.42452152565257
 6  0.84890596979698 -1.36755399229923 -0.81955012881288
 8  0.70710077817782 -0.84124673717372 -1.94710570077008
 8  1.96723701030103 -2.08277857645765 -0.49517443994399
 7 -6.68143988618862  2.47979834983498  0.41765551345135
 6 -5.57300786168617  3.24749339253925  0.83705000120012
 6 -5.93747796299630  4.68998868366837  0.82432730133013
 6 -7.19061977537754  4.88943503400340  0.51968855215522
 6 -7.85704740864086  3.42319112751275  0.20295512691269
 6 -4.92658757905791  5.72134956545655  0.81066873487349
 6 -7.90205176647665  6.07431435153515  0.14256378007801
 8 -7.46960087628763  7.37635925252525  0.42412026882688
 7 -8.91104465796580  0.79883074227423 -0.34410705980598
 6 -9.49914358675868  1.85880061536154 -0.44291534383438
 6 -10.88155478577858  1.59557942904290 -0.81439722092209
 6 -10.93160751825183  0.15871677607761 -0.97623847934793
 6 -9.60205186848685 -0.39649781298130 -0.69348142484248
 6 -12.03555033033303  2.61930812391239 -0.98106275707571
 6 -12.19563268376838 -0.47446100840084 -1.28697683138314
 6 -12.07820468256826 -0.93548571377138 -2.84849764446445
 7 -6.96241272417242 -1.44932749404940 -0.13063570807081
 6 -8.27874053565357 -2.32097209390939 -0.20734393239324
 6 -7.83393097819782 -3.68841616401640 -0.22999400950095
 6 -6.32575819701970 -3.63886304720472  0.04235597499750
 6 -5.91727801650165 -2.22758157265726  0.10157634193419
 6 -8.63872239573957 -5.05632301010101 -0.34490730663066
 6 -5.00677688218822 -4.47492329042904  0.04286231193119
 8 -4.74296604530453 -5.53053359165917 -0.35901539493949
 6 -3.89671339673967 -3.39892045124512  0.30563521072107
 6 -3.33114662556256 -3.74373054855486  1.71249096209621
 8 -4.04818005810581 -3.98375511031103  2.67650632043204
 8 -1.78062973787379 -3.57092339763976  1.61715165436544
 6 -1.14726324842484 -3.99607469756976  2.83651807700770
 6  3.05190708350835 -2.13116829372937 -1.43336458055806
 6  4.06034980238024 -1.05221222232223 -1.06626215851585
 6  5.18973972937294 -0.89369624102410 -1.88721492309231
 6  5.69267325112511 -1.66991012571257 -3.13529051125112
 6  6.27966179077908  0.10067241434143 -1.39777633613361
 6  7.41179987398740 -0.53199898199820 -0.78245498279828
 6  8.58312087238724  0.55278091269127 -0.23159163966397
 6  9.77449053845385 -0.15433235353535  0.36464815911591
 6  9.44238175447545 -0.61910072477248  1.75736010481048
 6  10.92279460946095  0.95940079427943  0.52119695809581
 6  12.17784305480548  0.12160346754675  0.90654896609661
 6  13.57745928852885  0.96461373607361  0.60099299769977
 6  14.83786012121212  0.40296357445745  0.70500516261626
 6  15.01931691979198 -0.23640592109211  2.15132505650565
 6  15.91575120352035  1.35423032503250  0.09567277257726
 6  17.33991346944694  0.75306053045305 -0.13253012691269
 6  18.45605515291529  1.61485867706771 -0.66900704750475
 6  19.85256745784578  0.79927842264226 -0.76468655235524
 6  19.85014481578158 -0.31147571727173 -1.90376616781678
 6  20.91440860976098  1.97871928992899 -0.97458255415542
 1 -3.64707534583458  3.47617886888689  1.22447184888489
 1 -9.43258724122412  3.94440352545254 -0.53117675157516
 1 -10.50921341294129 -2.19190959025903 -0.52616544244424
 1 -2.35433795059506 -1.10810842864286  1.97274732303230
 1 -1.68161750035003  1.41809228542854  0.61756821022102
 1 -1.01151253495349  1.27485579998000  2.95432614371437
 1 -2.58522669656966  2.29884846124612  3.07789390719072
 1 -2.73291562406241  0.46749463476348  3.06537240634063
 1 -2.17054607490749 -1.97309858285829 -0.64242202900290
 1 -1.60555572457246 -0.14572604550455 -1.04577436823682
 1  0.23931192949295 -0.31005243854385  1.06160202540254
 1 -0.09736345614561 -2.50387672147215  0.79671990409041
 1 -4.23313784418442  5.80782861076108 -0.01804684698470
 1 -5.77058733933393  6.66136881278128  1.06082298839884
 1 -4.23199422762276  5.72189115011501  1.51147892019202
 1 -9.04224723882388  5.94147925712571 -0.20988736453645
 1 -12.25945549914992 -1.24854572207221 -0.84855928312831
 1 -13.03942015701570  0.15057145694569 -0.95235287168717
 1 -12.70897872097210 -1.08870098549855 -3.51767888498850
 1 -11.75044200800080  0.08492591409141 -3.17720989048905
 1 -11.06985380978098 -1.65264858185819 -3.08901550895089
 1 -9.77918710201020 -4.98537509310931 -1.40409263726373
 1 -7.57467268186819 -5.70304031663166 -0.89455910781078
 1 -9.56446372637264 -5.12395435663566  0.44065867536754
 1 -3.12527210861086 -3.59803352825282 -0.50795910271027
 1  3.25761737713771 -3.23275054885489 -1.45204092119212
 1  2.67038132693269 -1.82696861186119 -2.17696793209321
 1  4.17583491119112 -0.47433018141814 -0.07919431783178
 1  4.80096315331533 -1.72877635013501 -4.09027914291429
 1  6.46509008740874 -1.29048772417242 -3.53117434133413
 1  5.86139996739674 -2.91879449374937 -2.92220640444044
 1  6.71868229012901  0.31706704410441 -2.23804642184218
 1  5.81071618101810  1.11305685348535 -0.77320158355836
 1  7.21665284418442 -1.17880607770777  0.26226794839484
 1  7.76716211461146 -1.44468325862586 -1.51525100100010
 1  8.47468960036004  1.29953054785479 -1.23454623992399
 1  8.07721621972197  0.98189337753775  0.65009071747175
 1  10.16313876097610 -1.33756119981998 -0.25657281488149
 1  8.60793303760376 -1.41267008270827  1.91207956875687
 1  10.34872094149415 -1.28518239943994  2.05934782618262
 1  9.49803301490149  0.30038881648165  2.45855716081608
 1  10.91105474327433  1.35657841774178 -0.52961013261326
 1  10.52743248984898  1.74889376497650  1.28170205050505
 1  12.02025956815682 -0.24297673717372  1.92904658795880
 1  12.50242239623962 -0.79258747934793  0.02987999049905
 1  13.49180405040504  1.66611615661566  0.06553764916492
 1  13.50176222102210  1.87166141744174  1.39102489188919
 1  14.82799422522252 -0.36380389638964 -0.16108429962996
 1  14.99173907380738  0.54408480398040  2.50548332133213
 1  14.31094836833683 -0.68946661856186  2.08215571367137
 1  16.17569460256026 -0.51311489458946  2.17486396409641
 1  15.82582371727173  1.98870886428643 -0.79823979867987
 1  15.88353238583858  2.29248878437844  0.85928425162516
 1  17.50998231333133  0.10956412701270  0.72646283298330
 1  17.22708023222322 -0.08235006580658 -1.17482886028603
 1  18.52398740584059  2.22644919271927 -1.79715270357036
 1  18.38771876797680  2.58411231813181 -0.15142847234723
 1  20.02205476667667  0.29471231743174  0.23179653045305
 1  19.86093441144114  0.19008405800580 -2.81722384758476
 1  20.91429571957196 -0.96388819061906 -1.78246237963796
 1  19.06353908090809 -0.97495521392139 -1.57043511821182
 1  20.44581135973597  2.55755533463346 -0.08473772017202
 1  21.84968270857086  1.10057664036404 -0.98797151215122
 1  20.72840949384938  2.43771125832583 -1.99151394769477
 1 -0.00656628172817 -4.62100484988499  2.72108045604561
 1 -1.65550523152315 -5.19377665136514  3.11349198579858
 1 -1.17846185948595 -3.18002647974797  3.69201335453545
 8 -11.75949432373237  3.78959375857586 -0.73908572227223
 1 -12.79181969346935  2.29751099119912 -1.72083268826883

