%nproc=4
%Mem=4GB
# td=(NStates=1) iop(3/107=0140000000,3/108=0140000000) iop(3/107=0140000000,3/108=0140000000) CAM-B3LYP/6-31G(d,p) 

TD

0 1
12 -5.53021452805281  1.15089996429643  0.12227083228323
 6 -5.07926831403140 -2.06641510481048 -0.30844771157116
 6 -3.37944673377338  1.16552683748375  2.71844721802180
 6 -6.08115691139114  4.50241350555055  0.58453866266627
 6 -7.81185695279528  1.22722357305731 -2.48293596709671
 7 -4.44744899819982 -0.28483667546755  1.08808014681468
 6 -4.29516304380438 -1.56382008360836  0.74862721232123
 6 -3.24933805830583 -2.33347665046505  1.46244060776078
 6 -3.02539571057106 -1.31085397629763  2.65913246934694
 6 -3.66495392279228 -0.04124675237524  2.19774435963596
 6 -3.67546058545855 -1.88103154455446  3.94104680408041
 6 -1.95258045124512 -2.62864027332733  0.57606291179118
 6 -1.03564520802080 -3.64140172077208  1.33463705170517
 6  0.26553165366537 -4.02418625932593  0.45448364306431
 8  0.41094115841584 -3.58219553315332 -0.62797903210321
 8  0.99821666736674 -4.79033865116512  1.17143175047505
 7 -4.88594941124112  2.64052342924292  1.53512374407441
 6 -4.02564465426543  2.41416883858386  2.41680228352835
 6 -3.66724622832283  3.61949045124512  3.15625618181818
 6 -4.48191874457446  4.59539106740674  2.62609188048805
 6 -5.24319042324232  3.89375747094709  1.46297238953895
 6 -2.73410877397740  3.73555093089309  4.42588677807781
 6 -4.68100463106311  6.12240966146615  3.05086459125913
 8 -3.92538258625863  6.65826371437144  3.77276117601760
 7 -6.80207400730073  2.62757265306531 -0.79731138743874
 6 -6.85062777757776  3.86691630883088 -0.42915460416042
 6 -7.88264345074507  4.60270699549955 -1.19193330283028
 6 -8.41731118441844  3.69510644054405 -2.15238418281828
 6 -7.62551144164416  2.44384039283928 -1.85708165466547
 6 -8.38204119501950  5.97343725312531 -1.10198970777078
 6 -9.39186354965497  3.82559295749575 -3.11189582238224
 6 -8.88578003170317  4.12003014921492 -4.56452285628563
 7 -6.34776319531953 -0.10655567326733 -1.15703079507951
 6 -7.28301783138314 -0.04395046364636 -2.11732594329433
 6 -7.54635214241424 -1.33708541214121 -2.70063258585859
 6 -6.71559110791079 -2.22821239303930 -2.06701286698670
 6 -5.97932634803480 -1.42103566866687 -1.09203533393339
 6 -8.54241969976998 -1.68419854585459 -3.64502139833983
 6 -6.20867453455346 -3.63480906480648 -1.95487904300430
 8 -6.57761215671567 -4.59607730613061 -2.63876014111411
 6 -5.10816937903790 -3.53034108670867 -0.79739205900590
 6 -5.34623210061006 -4.64620006110611  0.22814648644864
 8 -5.76925269686969 -4.39909891799180  1.40196656005601
 8 -5.08852855105511 -5.90546174257426 -0.14691783638364
 6 -5.51738930313031 -6.89961181448145  0.70743257305731
 6  2.27894886808681 -5.07642876307631  0.55007896229623
 6  3.43034756975698 -3.98693885478548  0.90837873767377
 6  4.01510090029003 -3.12215508560856  0.10168380338034
 6  3.65203954285429 -3.14456939823982 -1.39841934643464
 6  5.17837426322632 -2.39219426702670  0.66141994079408
 6  6.43472834413441 -2.59514243944394 -0.02882141474147
 6  7.61557688128813 -1.86102545804580  0.56815250575058
 6  9.01424224552455 -2.00214504810481 -0.13482126462646
 6  9.59321570327033 -3.38063870427043  0.01076761906191
 6  10.00027060616062 -0.87734797219722  0.45499801530153
 6  11.27587488988899 -0.72888249514951 -0.34252301850185
 6  12.19898758735873  0.38012263976398  0.11888873647365
 6  13.61792424822482  0.47720259015902 -0.57580234343434
 6  14.50720901990199 -0.67334673727373 -0.30268441934193
 6  14.32445838543854  1.80076624822482 -0.23506276107611
 6  15.59217340774077  2.26918494669467 -1.04220921592159
 6  16.14454703910391  3.55085983878388 -0.57458807200720
 6  17.40593584268427  3.81334917651765 -1.18961289648965
 6  17.18312090179018  3.93504839653965 -2.78341056525653
 6  17.95343474957496  5.25411067636764 -0.58266772567257
 1 -2.65380110291029  1.03497777317732  3.61053152155216
 1 -6.59051703050305  5.62019740014001  0.73320231193119
 1 -8.32434284148415  1.29039934283428 -3.49303478227823
 1 -3.65008607340734 -3.24436975237524  1.80657871867187
 1 -1.83389051295130 -1.34094175577558  2.99492076817682
 1 -3.04474425352535 -2.84082724392439  4.36542008600860
 1 -3.61815260796080 -1.09311921632163  4.66286831663166
 1 -4.76609912161216 -2.27267634853485  3.69231318181818
 1 -2.37988330203020 -2.81174069136914 -0.52211283508351
 1 -1.59560739313931 -1.62168128442844  0.38390651225123
 1 -0.41459689318932 -3.30882217781778  2.35321954065407
 1 -1.51236595819582 -4.55820295149515  1.76439823782378
 1 -1.57986810061006  3.57045657005701  3.99094500420042
 1 -2.69746073617362  4.75169237523752  4.73328958665867
 1 -3.08611160616062  3.14454545204520  5.11170617661766
 1 -5.72570563446345  6.47083127752775  2.41590691209121
 1 -9.92837197069707  2.72348300540054 -3.24954820652065
 1 -10.03098389628963  4.66656050015001 -2.87547783848385
 1 -9.61943174297430  4.13751216521652 -5.25423062536254
 1 -8.47099660906091  5.08011775717572 -4.73093304830483
 1 -8.16168601760176  3.26470582938294 -4.76514643944394
 1 -8.61422901250125 -1.22910345324532 -4.72692369066907
 1 -8.54511549454945 -2.80614401950195 -3.89897253425343
 1 -9.51352143164316 -1.46055287868787 -3.34795170187019
 1 -4.29368672607261 -3.75373019961996 -1.15598888578858
 1  2.72490362336234 -6.02257020002000  0.83936989388939
 1  2.13067381078108 -5.22025900200020 -0.48667211681168
 1  3.84762688498850 -4.27190647244724  1.92965797339734
 1  2.81385637233723 -3.56524214531453 -1.49365190619062
 1  3.89244385768577 -2.03904746404640 -1.91023349384938
 1  4.31916409040904 -3.62896662586259 -2.14339326522652
 1  4.80214025492549 -1.25151157515752  0.80139202270227
 1  5.48007653495350 -2.57911954435444  1.85445032533253
 1  6.78749627632763 -3.65754894699470  0.10991887588759
 1  6.43385354575458 -2.61846945594560 -1.10898149364936
 1  7.37579651095110 -0.83942726782678  0.54705195069507
 1  7.75564766766677 -2.02007859095910  1.79816420172017
 1  8.83816792609261 -1.64047232243224 -1.20094343244324
 1  8.90415493419342 -4.04553332473247 -0.54107790019002
 1  10.58599794059406 -3.45697990009001 -0.44645475897590
 1  9.63656271767177 -3.65051614311431  1.06541698439844
 1  9.46095524612461  0.20507623382338  0.32800816461646
 1  10.33702379987999 -1.09128566246625  1.56733627362736
 1  11.98191333263326 -1.68529856175618 -0.45281965516552
 1  10.97700378707871 -0.44935784068407 -1.46904823842384
 1  11.63286431993199  1.36565099429943 -0.00377993319332
 1  12.29829465276528  0.30274146554655  1.23485176537654
 1  13.36993379407941  0.73277771007101 -1.65850808950895
 1  14.70407974627463 -0.86143435613561  0.68735441544154
 1  14.00578614961496 -1.60812982928293 -0.82783910541054
 1  15.31403239163916 -0.59572277047705 -0.72565945844584
 1  13.56085427962796  2.57257187628763 -0.32162395009501
 1  14.57780448074807  1.86700698989899  0.75361257515752
 1  16.29742139793979  1.40371898459846 -0.74404089478948
 1  15.21470705410541  2.24668858165817 -2.08530991069107
 1  15.46551795639564  4.08058343634363 -1.00597259535954
 1  16.22637540764077  3.52726936833683  0.45723562396240
 1  18.28351203260326  3.07222871407141 -1.01741082068207
 1  16.35876659705971  4.76995352425243 -3.11580394019402
 1  18.15773169666967  4.23067258055806 -3.19495410051005
 1  16.96257645784578  2.94571564156416 -3.18882691729173
 1  17.56357240444044  5.12509372687269  0.53891555575558
 1  18.96256377867787  5.45222937513751 -0.61774868926893
 1  17.30151170207021  6.06610611371137 -1.28229229052905
 1 -5.27621292269227 -7.80065949904990  0.22849931223122
 1 -6.52864729502950 -6.86216330293029  1.07789129662966
 1 -5.32961112971297 -6.78270984658466  1.77686214281428
 8 -7.91372896449645  6.85656215701570 -0.36111389538954
 1 -9.06494479157916  6.25210085498550 -1.70507619041904

