%nproc=4
%Mem=4GB
# td=(NStates=1) iop(3/107=0140000000,3/108=0140000000) iop(3/107=0140000000,3/108=0140000000) CAM-B3LYP/6-31G(d,p) 

TD

0 1
12 -5.53483499009901  1.18961383568357  0.17568617381738
 6 -4.95911629882988 -2.16296475977598 -0.37485435223522
 6 -3.38654744384438  1.19468975377538  2.67904327762776
 6 -6.13181197689769  4.52637590179018  0.64983519231923
 6 -7.92756852395240  1.12554340504050 -2.40291796529653
 7 -4.26930118341834 -0.27337552935294  1.02985432423242
 6 -4.28026155365537 -1.62847654925493  0.67110946054605
 6 -3.21719484398440 -2.35511881468147  1.62365672937294
 6 -2.82403557455746 -1.25253814471447  2.58017457355736
 6 -3.52094952235224  0.00365773807381  2.05769035423542
 6 -3.42955599499950 -1.73291673307331  3.90901360076008
 6 -1.98659385258526 -2.68040544984498  0.62195750125012
 6 -0.99403104660466 -3.63369094969497  1.32993658165817
 6  0.20858595909591 -3.99650349104910  0.56243443814381
 8  0.42374243854385 -3.50803811741174 -0.52369860406041
 8  1.13276012171217 -4.75559517681768  1.22940754805481
 7 -4.80365118141814  2.68621799869987  1.38341857355736
 6 -3.99740182998300  2.42614003570357  2.45929653295330
 6 -3.75033453715372  3.66062456465647  3.18079863606361
 6 -4.43919447214722  4.60858238653865  2.64995426672667
 6 -5.13222932713271  4.02601069626963  1.48903499579958
 6 -2.75251061416142  3.85157253305331  4.34880907030703
 6 -4.58759529012901  6.02835025552555  2.87433693849385
 8 -3.95887593559356  6.63319120712071  3.71209510941094
 7 -6.84398819871987  2.54907480328033 -0.61839349564957
 6 -6.88088080288029  3.95159477667767 -0.37223891259126
 6 -7.89820500690069  4.52884960976098 -1.15759986948695
 6 -8.33243269656966  3.64681161106111 -2.01395033943394
 6 -7.64935382588259  2.35984199299930 -1.75293123962396
 6 -8.18731172207221  5.93378328772877 -1.26399590839084
 6 -9.49932429572957  3.80040043824382 -3.00604523732373
 6 -8.84172562626263  4.14680282648265 -4.45637204120412
 7 -6.35591401040104 -0.06038105580558 -1.07999309130913
 6 -7.33075260486049 -0.06678274687469 -2.15276948764877
 6 -7.58791629882988 -1.36823852745275 -2.58199072167217
 6 -6.67523707250725 -2.20322989478948 -1.94441060676068
 6 -5.87587600300030 -1.35286885198520 -1.04242037243724
 6 -8.51087654545455 -1.61706183218322 -3.78270516671667
 6 -6.19086275337534 -3.56018160206021 -2.00030358545855
 8 -6.52199659515952 -4.58067576597660 -2.66652291739174
 6 -5.08052661476148 -3.53133118571857 -0.86635895569557
 6 -5.30348782618262 -4.68826426752675  0.16248992079208
 8 -5.72779855145515 -4.39957896599660  1.39564592799280
 8 -5.14411410961096 -5.89502069846985 -0.42090523512351
 6 -5.34401196539654 -6.94915676897690  0.49282111191119
 6  2.28745971917192 -5.19121024122412  0.51267522192219
 6  3.36277081208121 -4.24424458535854  0.95114301410141
 6  4.09258864906491 -3.31376424652465  0.13371700670067
 6  3.67084142304230 -3.21080602190219 -1.29462896739674
 6  5.07441386718672 -2.51268631623162  0.74167796659666
 6  6.40779565086509 -2.59492241744174 -0.00346887948795
 6  7.59903522712271 -1.82391174667467  0.58028371887189
 6  8.91723254455446 -1.89022385598560 -0.13839162166217
 6  9.54091047274728 -3.29678031843184 -0.01009446714671
 6  9.90732131123112 -0.78080831823182  0.42119463496350
 6  11.25927322972297 -0.86499610651065 -0.30017878407841
 6  12.04579226782678  0.38175280278028  0.19078592619262
 6  13.40172262806281  0.67073194309431 -0.60115487868787
 6  14.35316361536154 -0.59788919151915 -0.41714586548655
 6  14.06148208780878  1.88748492009201 -0.17328658345835
 6  15.45203939433943  2.05377340554055 -0.91106610161016
 6  15.93034561896190  3.52639739253925 -0.54984559775978
 6  17.26591184028403  3.85181302290229 -1.25243917911791
 6  17.16913950365036  3.95742063376338 -2.80292251645165
 6  17.94646405250525  5.04172943824382 -0.70983044194419
 1 -2.81125684848485  1.10775505090509  3.72529299769977
 1 -6.40089806860686  5.74253963436344  0.91840083178318
 1 -8.75460586778678  1.01325162806281 -3.05270074887489
 1 -3.64638570337034 -3.34366968236824  1.86058411921192
 1 -1.77525464936494 -1.25551321292129  2.58524980108011
 1 -2.90698047714772 -2.59740290149015  4.16171971597160
 1 -3.41232202490249 -0.94165406980698  4.71307333713371
 1 -4.47085959765977 -2.14378345924592  3.66125007550755
 1 -2.28900421412141 -3.01265078237824 -0.42837346114611
 1 -1.46191402380238 -1.63001211751175  0.50611873347335
 1 -0.56740217371737 -2.99762105770577  2.24394861356136
 1 -1.33366808840884 -4.53835096629663  1.65480727872787
 1 -1.66090620442044  3.63735325972597  3.98738464816482
 1 -2.91562255235524  4.81423862986299  4.71055731343134
 1 -3.05328832383238  3.13677467496750  5.06749175517552
 1 -5.32200526442644  6.49388358275828  1.96901222262226
 1 -10.29219835333533  2.87323798089809 -3.02910616231623
 1 -10.23932473037304  4.63178702280228 -2.60921121182118
 1 -9.50267006680668  4.07099551355136 -5.33220842314231
 1 -8.50964047344734  5.29754950035004 -4.46165612061206
 1 -7.97931778077808  3.32103146194619 -4.55188511331133
 1 -8.64932252185219 -0.71962250515051 -4.56645764406441
 1 -8.42279326232623 -2.52145555065507 -4.28016065306531
 1 -9.53886396589659 -1.47371419481948 -3.36535344204420
 1 -4.13953131053105 -3.79430425702570 -1.51361464836484
 1  2.52472360536054 -6.14742268526853  0.82960891779178
 1  2.01976271967197 -5.07617459355936 -0.54411786138614
 1  3.74914703700370 -4.09602888468847  1.92522753035304
 1  2.58092307900790 -3.35889151025102 -1.18110065106511
 1  3.92401701500150 -2.21495505480548 -1.54406687718772
 1  4.26810898489849 -3.95899962916292 -1.85680460636064
 1  4.58229827072707 -1.50737716171617  0.61796367986799
 1  5.25478400570057 -2.68933056545655  1.76688156845685
 1  6.84751227792779 -3.61965515761576  0.08784666866687
 1  6.35572573297330 -2.34033164216422 -1.06650724622462
 1  7.34306323762376 -0.72365569066907  0.55040228572857
 1  7.67431953485349 -2.19475605870587  1.72766715201520
 1  8.74578868816882 -1.45075335053505 -1.25027836593659
 1  8.67386190489049 -3.88563733513351 -0.37666145854586
 1  10.52151149194920 -3.49040324242424 -0.40033014651465
 1  9.71662072347235 -3.42223331483148  1.12816325902590
 1  9.42473162376238  0.26136186238624  0.39253461726173
 1  9.88166826432643 -0.98547508140814  1.37912745274527
 1  11.74346948824882 -1.86068610051005 -0.13571794499450
 1  10.90711679837984 -0.58122102700270 -1.35555688928893
 1  11.35693672717272  1.28584301350135  0.19095954075408
 1  12.08689351265127  0.38247943934393  1.33945222542254
 1  13.05457225792579  0.71804623692369 -1.67417965666567
 1  14.74254359265927 -0.73218143084308  0.70934661466147
 1  13.87967353835383 -1.55854487078708 -0.54168048954895
 1  15.22436342474247 -0.60953415161516 -0.95405229772977
 1  13.57483567776778  2.85199981908191 -0.36037782548255
 1  14.45496219651965  1.98824911411141  0.71971918581858
 1  16.13891554735473  1.24833344604460 -0.40480697139714
 1  15.19291487488749  1.93208712151215 -1.95957733743374
 1  15.12000340494049  4.28849422742274 -0.88528052615262
 1  15.90932370247025  3.70446708810881  0.57993789418942
 1  17.99047272867287  2.96334782598260 -1.01257033663366
 1  16.38538925932593  4.72015854475448 -2.87352971277128
 1  18.07831375487549  4.31109062236224 -3.20405501060106
 1  16.77953815401540  3.06317738773877 -3.19266730133013
 1  18.04182022922292  4.98020923842384  0.54005566976698
 1  19.02487000930093  5.07450160236024 -1.15363227762776
 1  17.48732028292829  6.10827033013301 -1.01858591989199
 1 -4.95938123952395 -7.80397983108311  0.13008947124712
 1 -6.32702713301330 -7.32227931453145  0.74422793029303
 1 -4.86659482808281 -6.77058863446345  1.57814227082708
 8 -7.76151374297430  6.82171867266727 -0.50731851585159
 1 -9.01784008110811  6.15821146604660 -1.97445312811281

