%nproc=4
%Mem=4GB
# td=(NStates=1) iop(3/107=0140000000,3/108=0140000000) iop(3/107=0140000000,3/108=0140000000) CAM-B3LYP/6-31G(d,p) 

TD

0 1
12 -5.46171767836784  1.18614348864886  0.12347095229523
 6 -5.03933432063206 -2.14081254455446 -0.36201306810681
 6 -3.24635342444244  1.13376366116612  2.76305167846785
 6 -6.07362615831583  4.49270253445345  0.63359356815682
 6 -7.91971773887389  1.21967281798180 -2.35128280178018
 7 -4.35692994629463 -0.30642883468347  1.05591693049305
 6 -4.26650017751775 -1.58906260786079  0.70226257585759
 6 -3.29124224872487 -2.45458876167617  1.43243760746075
 6 -2.87682085308531 -1.35535842674267  2.54650120622062
 6 -3.54009143654365 -0.11279390709071  2.17336192139214
 6 -3.34458749814981 -1.87964140554055  3.99379207860786
 6 -2.06427162036204 -2.93726113541354  0.63564887038704
 6 -1.03246488998900 -3.73163074367437  1.36540012801280
 6  0.22478757925793 -3.96961080178018  0.63130132483248
 8  0.49418948324832 -3.51699901350135 -0.43516975117512
 8  0.92258910461046 -4.79466908420842  1.31689629692969
 7 -4.83141395769577  2.56298567546755  1.57661789348935
 6 -3.84155624542454  2.36989441114111  2.52762336563656
 6 -3.58915841954195  3.65664416661666  3.14786534273427
 6 -4.44569512221222  4.60224175247525  2.51539081038104
 6 -5.15118122232223  3.88498659385939  1.46898299059906
 6 -2.59540490359036  3.83553092889289  4.28252244164416
 6 -4.48196472707271  6.01156857735774  2.87602710751075
 8 -3.90072012001200  6.61898978697870  3.80655455535554
 7 -6.78825262516252  2.65739563536354 -0.84504616091609
 6 -6.85730844564456  3.96827644484448 -0.34197588628863
 6 -7.92105729212921  4.63710043484348 -1.19426353585359
 6 -8.39430888418842  3.67855478537854 -2.10564950935093
 6 -7.69168805930593  2.42603861266127 -1.79518546504650
 6 -8.23724671557156  6.02109201860186 -1.15763527232723
 6 -9.37378174147415  3.95323572177218 -3.21821645444544
 6 -8.67496895059506  4.03714186038604 -4.56288269226923
 7 -6.26962538153815 -0.03472849054905 -1.13840893289329
 6 -7.30094962456246 -0.01841791039104 -2.17584179487949
 6 -7.58210571777178 -1.26240794439444 -2.77436995959596
 6 -6.68961851065107 -2.14141371317132 -2.04597076277628
 6 -5.92818123352335 -1.44084764986499 -1.16776290669067
 6 -8.34328978677868 -1.58651877787779 -3.96701359755976
 6 -6.31059472657266 -3.55320090399040 -1.92436599169917
 8 -6.66261065656566 -4.62206990539054 -2.45554181928193
 6 -5.17998656075608 -3.57008506110611 -0.85099741954195
 6 -5.47999547694769 -4.62937837893789  0.13157682948295
 8 -5.73350912251225 -4.41853086118612  1.27582394579458
 8 -5.12442214041404 -5.84486568296830 -0.32400554515452
 6 -5.40255781998200 -6.88661051435144  0.64081591139114
 6  2.30175114831483 -5.10871199139914  0.60994494889489
 6  3.33136767176718 -4.06533669456946  1.03029092889289
 6  4.06113550375037 -3.30118298839884  0.24418805380538
 6  3.75248958785879 -3.20522546384638 -1.30865036953695
 6  5.16192261806181 -2.49412446004600  0.71024482328233
 6  6.50055492679268 -2.72141506670667  0.01129259665967
 6  7.57589291289129 -1.73814316981698  0.58412410291029
 6  8.86271709300930 -1.96629146274627 -0.06288407090709
 6  9.51253763546355 -3.35298593899390  0.18497503980398
 6  9.84805538463846 -0.82789302670267  0.42348486398640
 6  11.20677798019802 -0.83883349024902 -0.33535230143014
 6  12.10738842744274  0.40970559805981  0.13709055665567
 6  13.45565802160216  0.58099296919692 -0.72022678587859
 6  14.35439373837384 -0.61389079167917 -0.42303645454545
 6  14.10488642824282  1.87771394299430 -0.26073532833283
 6  15.30378456885689  2.25603363156316 -1.21399639463946
 6  15.83873645804580  3.62907766056606 -0.66511712491249
 6  17.28255350445044  3.84544238583858 -1.24696863206321
 6  17.10612320202020  4.14964985668567 -2.69163138733873
 6  17.91792119821982  5.08758402370237 -0.55253471237124
 1 -2.63095881868187  0.88810308570857  3.62853332173217
 1 -6.40280825962596  5.60121550195020  0.85120411211121
 1 -8.72961336853685  1.17085738863886 -3.14667014581458
 1 -3.69286035083508 -3.47566288168817  1.84491255205520
 1 -1.86664378827883 -1.41038870047005  2.77219849594960
 1 -3.03758353745375 -2.92651581278128  4.14233777777778
 1 -2.84762555525553 -1.09177908230823  4.69227125692569
 1 -4.42615512721272 -1.60660974187419  4.02264621512151
 1 -2.31485679937994 -3.39289880718072 -0.31330195399540
 1 -1.64360219261926 -1.98288740504050  0.28002612421242
 1 -0.64244967846785 -3.14387568316832  2.33918813751375
 1 -1.44495921752175 -4.55472260346035  1.75215701370137
 1 -1.68648876267627  3.45766529092909  3.99688559825983
 1 -2.36934792489249  4.87189439543954  4.33355961366137
 1 -2.82931592659266  3.15183618111811  5.15690069606961
 1 -5.17726078997900  6.41392558695870  2.12730805220522
 1 -10.09765889938994  3.14238489558956 -3.21525477717772
 1 -10.00092088998900  4.78364220832083 -3.26353664436444
 1 -9.42693249304931  4.37525593959396 -5.28611381368137
 1 -8.12427193659366  4.94669441484148 -4.59359931493149
 1 -7.94766461546155  3.23180253905391 -4.72932285708571
 1 -8.05054264386439 -1.11109165206521 -4.89783078137814
 1 -8.41573255625563 -2.70598400350035 -4.21246388338834
 1 -9.40343042254226 -1.25750257365737 -3.77636454315432
 1 -4.29268662606261 -3.98776360296030 -1.22956624352435
 1  2.47908904190419 -6.06665460846085  1.14221017791779
 1  2.05513625702570 -5.10283725982598 -0.42662611221122
 1  3.48441056335634 -3.99089837163716  2.15077008460846
 1  2.72725771247125 -3.50163578467847 -1.59600214121412
 1  3.83345795909591 -2.19502306160616 -1.63373584408441
 1  4.33831600560056 -3.98267199639964 -1.97694662056206
 1  4.68575861676168 -1.61969839383938  0.74298618211821
 1  5.32906143344334 -2.80470210261026  1.89063394369437
 1  6.73718124482448 -3.64439763186319  0.13559144314431
 1  6.27090725112511 -2.36339394839484 -1.07246784228423
 1  7.08651758305831 -0.63346667176718  0.39169641514151
 1  7.64189629252925 -1.66997358045805  1.71827621292129
 1  8.76419052835283 -1.61235951115111 -1.05937927602760
 1  8.71277579627963 -4.10771954335434 -0.33578737113711
 1  10.35141448224823 -3.50808501060106 -0.35818593209321
 1  9.73628268966897 -3.50833192469247  1.26402684538454
 1  9.36215536613661  0.09039476567657  0.23039840364036
 1  9.99489958745875 -1.05060159405941  1.55706524652465
 1  11.80478561986199 -1.68972900480048 -0.21144551775178
 1  11.02849893659366 -0.63173607850785 -1.30843217681768
 1  11.61004203770377  1.15907033623362  0.20111055585559
 1  12.50925574887489  0.26117730913091  1.20714899509951
 1  13.14289108980898  0.67924235653565 -1.75562780148015
 1  14.58556789508951 -0.67036524922492  0.68402408240824
 1  13.79496506750675 -1.57377639393939 -0.58714503600360
 1  15.37049803820382 -0.60699389758976 -0.77904479697970
 1  13.34380257445745  2.47333195229523 -0.48330011771177
 1  14.34479117941794  2.05430571977198  0.77359457335734
 1  16.00129178497850  1.46549516221622 -1.04954144484448
 1  15.02040762416242  2.33132704550455 -2.25626700640064
 1  15.35518692329233  4.55197057505751 -0.95541753985399
 1  15.94069683978398  3.65729237063706  0.50044994539454
 1  18.07200088148815  3.01367285848585 -1.06881596119612
 1  16.33953467386738  5.03589011791179 -3.06228858865887
 1  18.01904782828283  4.52802231553155 -3.28156276137614
 1  16.70669086928693  3.36415748574857 -3.24534256885689
 1  18.18948499569957  5.03683490099010  0.62831449564956
 1  18.92897041934193  5.35737989018902 -0.95747266166617
 1  17.30431198209821  6.06801630473047 -0.50041410271027
 1 -5.31714701610161 -7.89608904200420  0.09736619891989
 1 -6.50849527982798 -6.91165825242524  1.19571307880788
 1 -4.63260142874287 -6.84973654925493  1.39346380298030
 8 -7.92236982858286  6.82795929672967 -0.29285706970697
 1 -9.11112941004100  6.35497114201420 -1.69748543134313

