%nproc=4
%Mem=4GB
# td=(NStates=1) iop(3/107=0140000000,3/108=0140000000) iop(3/107=0140000000,3/108=0140000000) CAM-B3LYP/6-31G(d,p) 

TD

0 1
12 -5.73538504510451  1.17340221452145  0.23749235443544
 6 -5.04367475467547 -2.18454691799180 -0.39540640744074
 6 -3.51754054315432  1.10378066286629  2.79289466276628
 6 -6.26143493919392  4.60221348554856  0.71272148094809
 6 -7.91202696979698  1.26665751645165 -2.43084075757576
 7 -4.46027028032803 -0.37589578137814  1.03857519631963
 6 -4.30410393789379 -1.68506220782078  0.75111746134613
 6 -3.33055618011801 -2.40140344314431  1.58581294499450
 6 -2.95004817581758 -1.34083697459746  2.69374593069307
 6 -3.75427285468547 -0.10163279097910  2.10870545574557
 6 -3.42358539793979 -1.76324976637664  4.07425012441244
 6 -2.10789598279828 -2.86124353365337  0.88579388488849
 6 -1.00611225472547 -3.46323390399040  1.63518710671067
 6  0.27019211971197 -3.85442928362836  0.75580377507751
 8  0.50240030433043 -3.50566788038804 -0.39606584078408
 8  0.98532537823782 -4.76290590789079  1.41293590089009
 7 -4.93107392369237  2.57199657655766  1.48907913961396
 6 -4.08023011281128  2.38859628132813  2.48534913821382
 6 -3.77554705840584  3.54141264346435  3.10924148034803
 6 -4.55486603930393  4.65317684598460  2.57243651495150
 6 -5.34074017821782  3.94901299649965  1.57112320462046
 6 -2.91264662776278  3.74435181098110  4.37132132153215
 6 -4.68145467606761  6.06254367486749  2.93608311311131
 8 -4.06731677967797  6.59674756275628  3.91278517841784
 7 -6.85746954685469  2.57901779757976 -0.67381903820382
 6 -6.92579529432943  3.94701431863186 -0.41202289098910
 6 -7.87562274867487  4.67365409020902 -1.21968607810781
 6 -8.40872032533253  3.71854878477848 -2.06360530493049
 6 -7.71759064956496  2.43835984478448 -1.69228517501750
 6 -8.16983997489749  6.06385629502950 -1.21097060586059
 6 -9.33448781208121  3.82492289048905 -3.20091472427243
 6 -8.76176763046305  4.29323746994699 -4.70675707970797
 7 -6.32497091609161 -0.12395741344134 -1.10544563656366
 6 -7.24620415001500  0.00741467286729 -2.08216242694269
 6 -7.49846735393539 -1.32971467506751 -2.75705822842284
 6 -6.70613016181618 -2.20942051385139 -2.12335850155016
 6 -5.99080749614961 -1.39325289038904 -1.10024615501550
 6 -8.40300575837584 -1.53891401740174 -3.94387128332833
 6 -6.21014468156816 -3.60721630553055 -2.08073162826283
 8 -6.61342573807381 -4.61644934333433 -2.63566983208321
 6 -5.11507006910691 -3.51909996259626 -0.92979529932993
 6 -5.34088156555655 -4.61012645374537 -0.00426675487549
 8 -5.78058382998300 -4.45835484358436  1.13242960636064
 8 -4.98972867106711 -5.82891408780878 -0.41238438303830
 6 -5.32177974217422 -7.04377623092309  0.26210804060406
 6  2.26712768596860 -5.06049716991699  0.80039399379938
 6  3.34082861786179 -4.18227838873887  1.13936183598360
 6  4.01105049524952 -3.36121899199920  0.28431206620662
 6  3.83687802670267 -3.22504744604460 -1.13636314081408
 6  5.18721514731473 -2.49302435003500  0.83663746254625
 6  6.55004987628763 -2.69260218541854  0.00616208360836
 6  7.68774409800980 -1.78622797829783  0.50371606210621
 6  8.97936875817582 -2.03377821142114 -0.08113589608961
 6  9.59578596029603 -3.41144178457846  0.14678122042204
 6  10.04574515361536 -0.85870610801080  0.34675719121912
 6  11.33969127152715 -0.83321292819282 -0.45695446164616
 6  12.31917960656066  0.23792842034203  0.12384923252325
 6  13.52450490629063  0.54049891979198 -0.71245600880088
 6  14.45228352735274 -0.76697610021002 -0.50085423632363
 6  14.20183612321232  1.83755992759276 -0.23268252305231
 6  15.43915810621062  2.19472750095009 -1.02700769576958
 6  16.08163074747475  3.60785553835384 -0.83945455865587
 6  17.48883413251325  3.96265410701070 -1.35817975317532
 6  17.40576316601660  4.08295318701870 -2.90315253945395
 6  17.95420482658266  5.23761902720272 -0.72596205510551
 1 -2.74159988278828  1.23194747014702  3.74581504990499
 1 -6.49312729152915  5.62748812921292  0.80313930563056
 1 -8.58808921612161  1.18995929882988 -3.23311879067907
 1 -3.94955602040204 -3.27811312671267  2.00303836463646
 1 -1.85829295319532 -1.03949161076108  2.72794407050705
 1 -3.34995477457746 -2.76771993319332  4.32051559555955
 1 -2.85951674437444 -1.21975187958796  4.82661469126913
 1 -4.54824733643364 -1.88260734163416  4.09782373287329
 1 -2.47802311601160 -3.62117163446345  0.06689606580658
 1 -1.66081391379138 -2.11700081638164  0.14581270287029
 1 -0.51534696819682 -2.88467976357636  2.33738795749575
 1 -1.20831555315532 -4.29793692489249  2.37150894889489
 1 -1.86994710851085  3.74093361776178  3.96439234893489
 1 -3.34031502160216  4.69934714071407  4.79225548324833
 1 -3.20264325932593  2.91208220572057  4.99562456845685
 1 -5.27965102900290  6.56986118051805  2.38614393579358
 1 -9.76097523102310  2.78081873897390 -3.27348059975998
 1 -10.05069586748675  4.60120396449645 -3.22209249994999
 1 -9.59717951775178  4.59070748474848 -5.45098030033003
 1 -8.29208871827183  5.36933667906791 -4.56542649764976
 1 -7.99427927692769  3.47627698649865 -4.87031695649565
 1 -8.00522811241124 -0.86382692559256 -4.71118211651165
 1 -8.49364034703470 -2.60658406350635 -4.35343798079808
 1 -9.41726180568057 -1.33235005840584 -3.68762566926693
 1 -4.14206156355635 -3.55263008960896 -1.48337162406241
 1  2.34583571657166 -6.05616355935594  1.16493245014501
 1  1.94929567296730 -5.13624060016002 -0.24727817741774
 1  3.53792591489149 -3.82199148094810  2.15652065966597
 1  2.70240522722272 -3.05055067616762 -1.31351389238924
 1  4.24265887918792 -2.28198175747575 -1.42124459495950
 1  4.46750892489249 -4.06308003720372 -1.85197412331233
 1  4.74985502640264 -1.36558298229823  0.75981786528653
 1  5.49575810311031 -2.66832846524652  2.01310619091909
 1  6.79318684538454 -3.76053924602460  0.24724260826083
 1  6.43604376477648 -2.51505911491149 -1.07587818331833
 1  7.36635556685669 -0.62341566666667  0.40652789828983
 1  7.82273437633763 -2.06105268836884  1.62202658795880
 1  9.02896700600060 -1.81426970217022 -1.00897423552355
 1  8.95573009170917 -4.25307407880788 -0.27802159455946
 1  10.44588392919292 -3.54602880498050 -0.43212332583258
 1  9.75719478087809 -3.60956204770477  1.11962240494049
 1  9.52934208480848  0.12122784898490  0.21112647644764
 1  10.19590968846885 -1.13744027792779  1.39975951595160
 1  12.06757189848985 -1.78235826772677 -0.45327970117012
 1  11.16720280698070 -0.49863276817682 -1.55434676827683
 1  11.73893492699270  1.31458588778878  0.21707215201520
 1  12.50701552485248 -0.12309111771177  1.25814409460946
 1  13.35299209990999  0.60916534883488 -1.75330756945695
 1  14.85429476777678 -0.81697991069107  0.56982266226623
 1  14.19016458745875 -1.71090010631063 -0.89098542004200
 1  15.49273026142614 -0.70468366656666 -1.12670956345635
 1  13.51440963516352  2.59805442454245 -0.29255104280428
 1  14.44074077437744  1.84936522572257  0.81573878777878
 1  16.28335999179918  1.45750436313631 -0.52061855255526
 1  15.15462104550455  2.00779469226923 -2.11783316301630
 1  15.29553095769577  4.42794817281728 -1.15626762486249
 1  15.93623639373937  3.74708134953495  0.32082198259826
 1  18.21383506490649  3.15527701890189 -1.29567864746475
 1  16.73123384378438  4.99943647254726 -3.14485684548455
 1  18.31556748024803  4.30079959325933 -3.43910851595159
 1  16.89169937013702  3.29681075107511 -3.46459449404940
 1  17.87140318751875  5.34418563606361  0.40118178237824
 1  19.06125364766477  5.33595774797480 -1.22136905130513
 1  17.35911746264626  6.10763026612661 -1.34380844214421
 1 -4.73521882328233 -7.55074450755076 -0.39058259595960
 1 -6.45568999929993 -7.18300538713871  0.39799330683068
 1 -4.92484065266527 -7.10402197779778  1.18698315491549
 8 -7.69701729332933  6.93270977177718 -0.47129491349135
 1 -8.93874217131713  6.25052069696970 -1.96393207600760

