%nproc=4
%Mem=2GB
# td=(NStates=1) iop(3/107=0140000000,3/108=0140000000) iop(3/107=0140000000,3/108=0140000000) CAM-B3LYP/6-31G(d,p) 

TD

0 1
12 -6.93141571367137  0.48324746884688  0.16320393989399
 6 -4.48028513501350 -1.98712713451345  0.54599487648765
 6 -4.44941675707571  2.77463909700970  1.05225810741074
 6 -9.15430813551355  3.09510353445345 -0.14465396709671
 6 -9.24496259385939 -1.76210924052405 -0.71825188388839
 7 -4.77994306620662  0.40818021572157  0.54741377347735
 6 -3.99749701530153 -0.83519322612261  0.59053960936094
 6 -2.49553297189719 -0.45977773697370  0.92876493879388
 6 -2.47383734953495  1.14889503830383  1.11801396389639
 6 -4.06577284018402  1.40927101230123  0.94253902860286
 6 -2.06170245594559  1.59360115601560  2.57554211701170
 6 -1.58961771017102 -0.96742930633063 -0.13331200490049
 6 -0.19908802710271 -1.12123382998300  0.47601667516752
 6  0.81441252045205 -1.03499073597360 -0.73009118291829
 8  0.78307837593759 -0.35899851235124 -1.72635362556256
 8  1.84878516511651 -2.04870516911691 -0.49129405190519
 7 -6.75827756995700  2.52135250525052  0.40424417231723
 6 -5.64727528842884  3.41674031723172  0.78454475067507
 6 -6.14893910911091  4.74633431823182  0.78081294989499
 6 -7.52158287168717  4.89797588808881  0.39461604490449
 6 -7.87417912181218  3.46127493589359  0.11008583998400
 6 -5.15942086238624  5.74744217471747  1.00492816081608
 6 -8.16661822312231  6.13565048514852  0.42236175987599
 8 -7.79128304450445  7.19577119371937  0.60505836263626
 7 -8.89920347384738  0.58651951115112 -0.35428807790779
 6 -9.65242891529153  1.77071180648065 -0.36205725802580
 6 -10.95847247754775  1.40312018311831 -0.77118289948995
 6 -10.96258061556155  0.10497140154015 -1.12777363286329
 6 -9.70152181548155 -0.52526068926893 -0.56019809650965
 6 -11.77476425172517  2.52742893599360 -1.15324997579758
 6 -12.01098421892189 -0.67091065336534 -1.60654878857886
 6 -11.90462732483248 -0.72027419261926 -3.19274206890689
 7 -6.96052253515352 -1.49341190249025 -0.04505715021502
 6 -7.97418007960796 -2.25502549924993 -0.51286448444844
 6 -7.52917050215022 -3.64667198959896 -0.47699870997100
 6 -6.13658928012801 -3.57909707060706  0.00099183858386
 6 -5.92836912561256 -2.27415623012301  0.20906709100910
 6 -8.45623414691469 -4.71377875567557 -0.67503031893189
 6 -4.99040524502450 -4.40636643474347  0.25270329602960
 8 -4.73299504820482 -5.52128266656666  0.16061656825683
 6 -3.95896962236224 -3.42545310451045  0.49002364956496
 6 -3.32765627652765 -3.73618979447945  1.97793750675068
 8 -3.73714895499550 -4.04343107790779  3.03775244504450
 8 -2.01138281318132 -3.66692299759976  1.58340828002800
 6 -1.25666418851885 -3.79273436353635  2.95230965616562
 6  3.15326721952195 -2.00055523242324 -1.49170041414141
 6  4.06618038543854 -1.06221322242224 -1.03945947824782
 6  5.12091284668467 -0.75866273767377 -1.72175837743774
 6  5.32101608540854 -1.39439257395740 -3.10108709090909
 6  6.17012083668367  0.06170851795179 -1.21416797529753
 6  7.62272096609661 -0.67668345044504 -0.89081581888189
 6  8.79811237153715  0.21356699129913 -0.50106858735874
 6  9.97314040344035 -0.42453937423742  0.03355504980498
 6  9.68376589288929 -1.02942175687569  1.29826419521952
 6  11.11287361736174  0.65940079427943 -0.01412657425743
 6  12.41764703520352 -0.04097279007901  0.32911122232223
 6  13.54790633323332  1.02186946164616  0.43172607100710
 6  14.89524585978598  0.18184146224622  0.70961562366237
 6  14.90948593669367 -0.30332261276128  2.10892081608161
 6  16.05033466186619  1.31207610961096  0.39114231953195
 6  17.36036551465147  0.53522874727473 -0.09782665656566
 6  18.51745129252926  1.63556074727473 -0.13006315311531
 6  19.88115031613161  0.82322081688169 -0.67812789648965
 6  19.54850465176518  0.27731316161616 -2.08325411661166
 6  21.00374754365437  1.86772819081908 -0.79858495439544
 1 -3.69182982128213  3.39487073807381  1.31214061576158
 1 -9.83576755925593  4.14602368746875 -0.21930556445645
 1 -10.07638012961296 -2.59779017831783 -0.72303512941294
 1 -2.20775329212921 -0.92683030083008  1.92628267656766
 1 -1.96862620122012  1.34570504670467  0.28591504490449
 1 -0.97701908560856  1.15477379177918  2.93729444054405
 1 -1.87430560446045  2.51397997439744  2.93295941374137
 1 -2.86801913441344  1.06409429472947  3.33862973207321
 1 -1.96201522182218 -2.20483175617562 -0.26380416721672
 1 -1.30184535353535 -0.28149962286229 -1.16942673347335
 1 -0.11086308800880 -0.33538497179718  1.33984985018502
 1  0.14159043924392 -2.22499883368337  0.79513974607461
 1 -4.86144067446745  5.71501932983298  0.21682664036404
 1 -5.43118339893989  6.53025570147015  1.39453635973597
 1 -4.73302433063306  5.55159412041204  1.91770954325433
 1 -9.62994600870087  6.20172528172817  0.37776140034003
 1 -12.13863341694169 -1.85474634213421 -1.62333676087609
 1 -13.05072128712871 -0.29511311151115 -1.21777941434143
 1 -12.90844866796680 -1.32712482788279 -3.75737285438544
 1 -11.74389135293529  0.26486390789079 -3.81117328682868
 1 -10.96616344074407 -1.48305162216222 -3.23306991439144
 1 -8.68980816411641 -4.67400395599560 -2.01747397539754
 1 -8.31430664526453 -5.99226923952395 -0.25581523342334
 1 -9.61168844884488 -4.28435039623962 -0.17807319781978
 1 -2.80898047944794 -3.70922464736474 -0.29452775957596
 1  3.42026364176418 -3.35962323612361 -1.50427614471447
 1  2.76657094589459 -1.79301521652165 -2.69779001430143
 1  4.08840616831683 -0.81320406880688  0.09392299389939
 1  4.74517757475748 -0.92904637713771 -4.07208732373237
 1  6.31399497789779 -1.20760943634363 -3.30762198609861
 1  5.20726455385539 -2.32391500580058 -2.88707289108911
 1  6.42210263216322  0.64684002140214 -1.98661127832783
 1  5.94738984838484  0.71080662846285 -0.36005026842684
 1  7.47888906780678 -1.26323452055205 -0.20145842424242
 1  7.73450884928493 -1.29259805010501 -1.72186166206621
 1  8.93708583998400  0.72266286108611 -1.29147193249325
 1  8.41446994509451  0.67566275447545  0.50672638103810
 1  9.90446289338934 -1.46188363206321 -0.61098825642564
 1  8.77000924522452 -1.79645846154615  1.30400876167617
 1  10.41900797019702 -1.57201108230823  1.72632452385238
 1  9.11000421202120 -0.39370059245925  2.24271557665767
 1  11.01230486828683  1.02909566946695 -0.98209538113811
 1  10.74976472307231  1.45649452505251  0.97175105540554
 1  12.43154069626963 -0.46711915141514  1.20896457975798
 1  12.59121127512751 -0.80834905550555 -0.08753175067507
 1  13.63626849684969  1.53095264026403 -0.54690359495950
 1  13.34634667946795  1.63877812911291  1.30107589698970
 1  14.88832025782578 -0.83098061406141 -0.04408259945995
 1  14.90214011391139  0.79530992649265  2.84277705070507
 1  13.93693096659666 -1.15512318421842  2.62672017011701
 1  15.74257129022902 -1.22330591369137  2.34707118481848
 1  16.06327746264626  1.96984697809781 -0.54743471817182
 1  16.47683171577158  1.99754929042904  1.35175349854985
 1  17.66934824992499 -0.34677150655065  0.72111229792979
 1  17.35531305550555 -0.02005383618362 -1.01843322072207
 1  18.29661466856686  2.39188573637364 -1.05187817611761
 1  18.68770876697670  1.97567147404740  0.90454712521252
 1  20.01289385058506  0.03294614081408  0.25298864966497
 1  19.50058837683768  1.23964901450145 -2.62198432363236
 1  20.42920721072107 -0.32795459725973 -2.21488562196220
 1  18.50489321632163 -0.22512023042304 -2.15160323502350
 1  21.07261404000400  2.64560413951395  0.18463921752175
 1  21.73049078937894  1.14315089778978 -1.03487620262026
 1  20.91897855075507  2.73509099629963 -1.69968476477648
 1 -0.23084870997100 -4.32240498989899  2.32835118311831
 1 -1.98435811681168 -4.67673494719472  3.45208584518452
 1 -1.47546155945595 -2.53121159825983  3.43173732693269
 8 -11.69977835213521  3.72507730693069 -0.93464527822782
 1 -12.83244375587559  2.09594083418342 -1.31518212321232

