%nproc=4
%Mem=2GB
# td=(NStates=1) iop(3/107=0140000000,3/108=0140000000) iop(3/107=0140000000,3/108=0140000000) CAM-B3LYP/6-31G(d,p) 

TD

0 1
12 -6.86429900200020  0.56027517161716  0.06840445994599
 6 -4.46581368786879 -2.06092451425143  0.54414469146915
 6 -4.21158297369737  2.87222885598560  0.91263414501450
 6 -8.94983768846885  3.17546157025703 -0.17427692939294
 6 -9.18744684228423 -1.65592862246225 -0.94517457615762
 7 -4.76960203210321  0.34643404110411  0.64558359045905
 6 -3.99649691529153 -0.80265997279728  0.71142169756976
 6 -2.47144056265627 -0.32329408860886  0.92697475977598
 6 -2.45985595139514  1.08856900570057  1.32661482398240
 6 -3.79891615451545  1.47267735293529  0.98476325102510
 6 -2.23625991169117  1.38984077997800  2.79152371517152
 6 -1.60006875527553 -0.77290985438544 -0.18493716741674
 6 -0.03060117841784 -0.99409111571157  0.47701677517752
 6  0.93245432463246 -1.30422765966597 -0.53426159996000
 8  0.87432750085008 -0.83804641714171 -1.69351034123412
 8  2.01263154975498 -2.14329462806281 -0.24913983648365
 7 -6.67329907210721  2.63947431743174  0.31265501340134
 6 -5.54525508640864  3.39234787798780  0.67520381658166
 6 -6.01073528872887  4.89694937973797  0.69039390799080
 6 -7.40295100850085  4.90512660316032  0.27778436173617
 6 -7.83398510241024  3.60481929032903  0.06443127452745
 6 -5.00523544384438  6.07312474297430  1.16423409140914
 6 -8.09639120042004  6.08219513961396  0.18257778147815
 8 -7.58708262446245  7.09987160376038  0.41593945074507
 7 -8.85486904040404  0.68373923312331 -0.27345999509951
 6 -9.52951662406241  1.86555129042904 -0.50984203650365
 6 -10.84081071137114  1.47078694979498 -0.92452823402340
 6 -10.97956231373137  0.12319322372237 -1.08520937643764
 6 -9.65352701600160 -0.33494165736574 -0.74708678537854
 6 -11.83889066436643  2.55137133023302 -0.96137078787879
 6 -12.13928704920492 -0.60678424072407 -1.32013014671467
 6 -12.00073693579358 -1.01550371557156 -2.83434622932293
 7 -6.93204968786879 -1.48714127542754 -0.11085372987299
 6 -8.01863452505251 -2.22008200490049 -0.55573877187719
 6 -7.54705229032903 -3.66638396079608 -0.64546555665567
 6 -6.23505912711271 -3.68882804370437 -0.29434769536954
 6 -5.84821110981098 -2.32168098259826  0.11588777307731
 6 -8.26151467496750 -4.69925730353035 -0.99670248614861
 6 -5.00190639513951 -4.43351915001500 -0.01304327862786
 8 -4.71161290999100 -5.61274181248125 -0.32653214661466
 6 -3.84203792919292 -3.49035959515952  0.55861050825083
 6 -3.40422393329333 -3.78672484798480  2.03735344834483
 8 -4.10853609370937 -4.29652638743874  2.92969163896390
 8 -2.09064073897390 -3.34636094139414  1.98286822602260
 6 -1.36871539363936 -3.90645573567357  3.23969839503950
 6  2.97482937573757 -2.48359353625363 -1.31307255135514
 6  4.07602136953695 -1.47857485858586 -0.95247077937794
 6  5.21195195059506 -1.17440431183118 -1.78801500310031
 6  5.22799678347835 -1.80218335303530 -3.06805378757876
 6  6.07310113471347 -0.01514916781678 -1.33509006750675
 6  7.40679937393739 -0.70177595969597 -0.79651638893889
 6  8.43024558485848  0.25036067066707 -0.46948542904290
 6  9.70134322372237 -0.23935085538554  0.15739743404340
 6  9.45919343564356 -0.89312812751275  1.45571994079408
 6  10.80608293829383  0.69929478367837  0.35035987438744
 6  12.23607887838784  0.06218752595260  0.38067637883788
 6  13.41653319591959  0.99896717141714  0.27138003640364
 6  14.88657499269927  0.22308558665867  0.57980264236424
 6  14.94567955605561 -0.32524480498050  2.23091301530153
 6  16.09849947834784  1.30841574357436  0.40294349964996
 6  17.43819329742974  0.51535676007601 -0.11668854275428
 6  18.51719126652666  1.69518670987099 -0.38711885868587
 6  19.78295049614961  1.15050354515452 -0.86105618931893
 6  19.69018882018202  0.35494092439244 -2.28513430463046
 6  20.81994916381638  2.32817423542354 -0.74568966486649
 1 -3.31905254355435  3.86996824782478  0.89919932163216
 1 -9.78037201970197  3.94467355245525  0.26100246634663
 1 -10.03099559115912 -2.50909130843084 -1.36432925882588
 1 -1.99698221502150 -1.13509112691269  1.87365741404140
 1 -1.56033537213721  1.88435891209121  1.02269872327233
 1 -1.01078246194620  0.86960527492749  2.89437014811481
 1 -2.43373154705471  2.48345692209221  3.18001411921192
 1 -2.80120245274527  0.66462434773477  3.44357022612261
 1 -1.74901392169217 -1.82478375137514 -0.61606939373937
 1 -1.41042621162116 -0.17143861676168 -0.92015180598060
 1  0.44615261356136  0.21213978067807  0.62337820302030
 1 -0.30986470627063 -1.88520485428543  1.37922815491549
 1 -4.02179671007101  5.90186801470147  0.78951390909091
 1 -5.61387166776678  7.08423109900990  0.67332423852385
 1 -5.15906693489349  6.13786274727473  2.29970774307431
 1 -9.41590460456046  5.99160426962696 -0.35162153795380
 1 -11.99094864846485 -1.50522138963896 -0.86486091329133
 1 -13.00537675267527 -0.20070367056706 -1.39248688508851
 1 -13.02692051515151 -1.73640575597560 -3.13676079317932
 1 -12.05524248804881 -0.16520909940994 -3.37036920642064
 1 -11.10908773317332 -1.60759407640764 -3.05490209760976
 1 -8.72336151945195 -4.91981853745374 -2.12198442644264
 1 -7.73877909250925 -5.81621163376338 -0.75574522642264
 1 -9.22556983698370 -4.68290025122512 -0.77157254775477
 1 -3.05515509690969 -3.46644036893689 -0.14799310611061
 1  3.03665528092809 -3.58033530733073 -0.83081879897990
 1  2.68582287108711 -2.26770268526853 -2.18686892219222
 1  4.01552888058806 -0.97204995339534  0.14701830343034
 1  4.38573163016302 -1.25491896439644 -3.90463057805781
 1  6.55033861226123 -1.81321999739974 -3.23341456535654
 1  4.92028585598560 -2.88149076337634 -3.08606279007901
 1  6.68089851175118  0.69318465586559 -2.08327094429443
 1  5.51887699709971  0.75449099689969 -0.57192145554555
 1  7.04845602450245 -1.30848904600460 -0.11038931733173
 1  7.88347374577458 -1.44518330863086 -1.82624210011001
 1  8.67918004940494  1.12651324612461 -1.02430521582158
 1  8.24582308040804  0.60033522172217  0.51816752515252
 1  9.97263971107111 -0.89387683138314 -0.79024618221822
 1  8.80146239053905 -1.94856367206721  1.28957731853185
 1  10.63866993639364 -0.89127300850085  2.10288217961796
 1  8.93112632423242 -0.19104032643264  2.12992429752975
 1  10.58447208500850  1.36497925782578 -0.50232740434043
 1  10.69893964056406  1.46115499109911  1.19229310961096
 1  12.10336787898790 -0.51122356185619  1.34784846814681
 1  12.47421957595760 -0.68027624822482 -0.50166316381638
 1  13.26831170117012  1.77739728472847 -0.56751565616562
 1  13.15328737353735  1.67978222952295  1.29716550595060
 1  15.19329075487549 -0.63061057705771  0.01270307910791
 1  15.34407430733073  0.60475087058706  3.25395816881688
 1  14.27054432793279 -0.64589226112611  2.56530402850285
 1  15.82509954305431 -1.07393097619762  2.36435291299130
 1  15.73617475237524  1.84490448384838 -0.36918689338934
 1  16.23972800540054  1.63403293879388  1.18505682888289
 1  17.38075939103910 -0.21945877527753  0.80643082978298
 1  17.48803632783278 -0.12499433023302 -1.41049242664267
 1  18.17786279337934  2.39991653945395 -1.44643763206321
 1  19.01572156825683  2.35870977787779  0.47186385688569
 1  20.08829139033903  0.38938178437844 -0.06995364456446
 1  19.30241855985598  1.01582663226323 -3.07523964916492
 1  20.43505779577958 -0.00884268606861 -2.42605673907391
 1  19.20036276327633 -0.68954667306731 -2.36801487618762
 1  20.86254303290329  2.66405598469847  0.10060081368137
 1  21.81123886418642  2.00112669536954 -1.38625134013401
 1  20.58654530743074  3.42111959915992 -1.44619941624162
 1 -0.73332895799580 -3.88642139153915  2.61505985398540
 1 -1.94266394739474 -4.81816909060906  3.63153378997900
 1 -1.32982699599960 -3.33722219931993  3.82359651285129
 8 -11.55902427672767  3.69503430263026 -0.71526334003400
 1 -12.93450396189619  2.07702894299430 -1.13722432743274

