%nproc=4
%Mem=2GB
# td=(NStates=1) iop(3/107=0140000000,3/108=0140000000) iop(3/107=0140000000,3/108=0140000000) CAM-B3LYP/6-31G(d,p) 

TD

0 1
12 -6.70342291439144  0.64135327942794 -0.09737211771177
 6 -4.46549365586559 -2.00489891169117  0.36514679167917
 6 -4.30534234963496  2.78305993909391  0.81162404400440
 6 -8.93176588128813  3.20215423952395 -0.24140364206421
 6 -9.36880497809781 -1.76206923652365 -0.64623468216822
 7 -4.65693076497650  0.38106750445044  0.67794682678268
 6 -3.84157142274227 -0.83605331213121  0.63629418481848
 6 -2.51572499109911 -0.49176093529353  1.03434549684969
 6 -2.46679664546455  1.02839298809881  1.09785194769477
 6 -3.86532279517952  1.35020510571057  0.95739051375138
 6 -1.93178946464646  1.60871266716672  2.60572513531353
 6 -1.54005275367537 -0.92379494289429 -0.13447212091209
 6 -0.19297741604160 -0.93857556415642  0.30301937543754
 6  0.78818989818982 -1.31404864176418 -0.77323549734973
 8  0.70202027012701 -0.97467007950795 -1.98560955115512
 8  1.83207349394940 -2.15908620722072 -0.38240316281628
 7 -6.58924066626663  2.67282765276528  0.07345109300930
 6 -5.58929949084908  3.32231087428743  0.41676797299730
 6 -5.75342955815582  4.72994267906791  0.49088395699570
 6 -7.11413212661266  4.87310340084008  0.45449203250325
 6 -7.67521922582258  3.52843165156516  0.09966479787979
 6 -4.71753667396740  5.90418784928493  0.79267693569357
 6 -8.11429299059906  6.03029995009501  0.47926745044505
 8 -7.74604852105211  7.15236685328533  0.54525238203820
 7 -8.75823937743774  0.71926278547855 -0.26072872197220
 6 -9.47746141854186  1.86596133143314 -0.43762481478148
 6 -10.89680631093109  1.45847571867187 -0.73813959515952
 6 -11.00260461796180  0.13459436383638 -0.70230108560856
 6 -9.66783844714471 -0.47029519271927 -0.57466954365437
 6 -11.88967574287429  2.45650184328433 -0.92700735153515
 6 -12.24610773127313 -0.59828339063906 -1.05985411911191
 6 -12.36497335943594 -0.92296446164616 -2.63741653635364
 7 -6.98851533443344 -1.34552711401140 -0.08872151665167
 6 -8.03358602020202 -2.33054305100510 -0.37647084508451
 6 -7.65173275837584 -3.58408573097310 -0.47491850195020
 6 -6.16210183138314 -3.59434859575958 -0.18300656125613
 6 -5.93537982668267 -2.05326414091409  0.13684986928693
 6 -8.49002752625263 -4.74921229902990 -0.70351316721672
 6 -4.91277748224822 -4.31958775687569 -0.05620759505951
 8 -4.71845359405941 -5.45124566286629 -0.35241473487349
 6 -3.79145287068707 -3.35889644884488  0.39751439863986
 6 -3.41994550545055 -3.67360353585359  1.85139485248525
 8 -4.10763600370037 -3.83916065086509  2.88644731453145
 8 -2.15628730363036 -3.59379568486849  1.86210614981498
 6 -1.27709623172317 -3.84654974507451  3.20186461166117
 6  2.92956484928493 -2.44353953085308 -1.32318356245625
 6  4.07359112651265 -1.48530553165317 -0.87276280858086
 6  5.17511826722672 -1.40248712011201 -1.72536873847385
 6  5.38040202400240 -2.03937707240724 -3.13989097129713
 6  6.18412223682368 -0.39104675757576 -1.28989554805481
 6  7.49224791879188 -0.90332611471147 -0.97482421972197
 6  8.41631419171917  0.17093272787279 -0.37430591109111
 6  9.74492758215822 -0.40061698199820  0.16807850215021
 6  9.66547406370637 -1.06372518721872  1.50597496629663
 6  10.82064439443944  0.70077493169317  0.26923176157616
 6  12.26507177767777  0.10419172637264  0.24338264946495
 6  13.45437698029803  1.06234350905090  0.24647754615462
 6  14.75300163536354  0.34079735783578  0.51314597669767
 6  14.90233522162216  0.00460818031803  1.76727665166517
 6  15.95862549094910  1.28501340334033  0.16127933323332
 6  17.42208168626863  0.64489971437144  0.21826495259526
 6  18.41314086148615  1.69281647284728 -0.30773091989199
 6  19.86377857895789  1.25174366916692 -0.37774785848585
 6  20.04716451775178  0.30324575487549 -1.74615040624062
 6  20.79233640254025  2.48281969997000 -0.38202329822982
 1 -3.68298893719372  3.46907815881588  1.37606700840084
 1 -10.20980496299630  4.02966205130513 -0.21256489038904
 1 -10.29615210681068 -2.60956135543554 -0.50700352625263
 1 -2.27815033183318 -0.99812743054305  2.15084513281328
 1 -1.71462080068007  1.40029050525053  0.44332078547855
 1 -0.96017740144014  1.41686000040004  2.85681639273927
 1 -1.97778595249525  2.75738431483148  2.72915903370337
 1 -2.45241757425743  0.98483636893689  3.74774064316432
 1 -1.99576859715972 -2.24746601960196 -0.37753554035404
 1 -1.52960812981298 -0.41401287418742 -1.47927771857186
 1  0.32563056135614  0.14842340904090  0.51857772297230
 1  0.29347562776278 -1.70336667046705  1.13749398149815
 1 -3.93140767116712  6.21953978187819 -0.00211525382538
 1 -5.50389066966697  6.77664033993399  0.86749365546555
 1 -3.89591061926193  6.05810477147715  1.67146491879188
 1 -8.97319033313331  5.83642875207521 -0.13239961576158
 1 -12.11193074667467 -1.64419528702870 -0.36931135833583
 1 -13.28563477847785  0.06185258505850 -0.85688332473247
 1 -13.44165198829883 -1.35715783118312 -3.06560367746775
 1 -12.41701866566657 -0.09051162966297 -3.25708787828783
 1 -11.93062988738874 -1.39092240924092 -3.25339194659466
 1 -9.24014319761976 -4.67601415701570 -1.69849207720772
 1 -7.99469468406841 -5.63119313191319 -0.74732438433843
 1 -9.44647192719272 -4.71651361256126  0.02271688118812
 1 -2.96261584298430 -3.41002472737274 -0.39964827162716
 1  3.13475509090909 -3.42439971377138 -1.25786150325032
 1  2.45983027182718 -1.91783769876988 -2.36399663496350
 1  3.79812714041404 -1.08293104150415  0.09056265786579
 1  4.63808686568657 -1.89104257675768 -3.85542565756576
 1  6.02174575297530 -1.75789446484648 -3.16604782868287
 1  5.56838066546655 -3.03161577587759 -3.08295247904790
 1  6.29185960786079  0.64559989738974 -2.14754737193719
 1  5.61423653305331  0.19433498129813 -0.24694895829583
 1  7.70109128802880 -1.65277347444744 -0.25735401380138
 1  8.02030742914291 -1.24116290659066 -2.05875535143514
 1  8.25883801520152  1.08645924072407 -0.98124090939094
 1  7.93884238233823  0.79908509670967  0.44542025042504
 1  10.18569101620162 -1.28525596929693 -0.61882904050405
 1  8.73490573487349 -1.71321013671367  1.58213657445745
 1  10.48053412281228 -1.48945282648265  1.54657654905490
 1  9.82726593819382 -0.61891311371137  2.35100640574057
 1  10.76537017481748  1.35640840074007 -0.40657782938294
 1  10.81787153375337  1.66801567716772  1.18653253355336
 1  12.13455099729973 -0.65866830633063  0.84553823712371
 1  12.52544469846985 -0.40723894449445 -0.38982197969797
 1  13.71154602460246  1.85368491349135 -0.47763666826683
 1  13.51181322612261  1.78654290559056  0.98476426582658
 1  14.57844927072707 -0.36581409740974 -0.10303849504950
 1  14.98016791669167  0.95153554905491  2.52081485448545
 1  13.76818409190919 -0.68769644154415  2.36632413051305
 1  15.69298633173317 -0.58180176327633  1.77253373107311
 1  15.59097023192319  1.39807980138014 -1.09214918961896
 1  15.83181721432143  2.23710324582458  0.57404572777278
 1  17.67435875097510  0.43968713931393  1.13459364606461
 1  17.32592011621162 -0.08374020482048 -0.51236261366137
 1  18.05844085118512  1.81878842664266 -1.34404739303931
 1  18.64116411251125  2.57759166606661  0.29926659715972
 1  19.95154771597160  0.57711055725573  0.65965931673167
 1  19.93706202420242  0.80525557515752 -2.68060018521852
 1  21.08849313931393 -0.37452925472547 -1.84224835823582
 1  18.96819954695470 -0.64720243864386 -1.46431450615061
 1  20.77703448204820  3.14942452155216  0.45087584118412
 1  22.03520126042604  2.45354193689369 -0.09245196019602
 1  20.79217587048705  2.94518200540054 -1.26304110041004
 1  0.13132750765077 -3.88240098949895  3.12110045804580
 1 -1.60842052305231 -5.03430070377038  3.89465010161016
 1 -1.45473948724872 -2.97846632373237  3.88052220542054
 8 -11.83593196749675  3.72229702890289 -0.83361517521752
 1 -12.71800231173117  2.05956719681968 -1.37563816881688

