%nproc=4
%Mem=2GB
# td=(NStates=1) iop(3/107=0140000000,3/108=0140000000) iop(3/107=0140000000,3/108=0140000000) CAM-B3LYP/6-31G(d,p) 

TD

0 1
12 -6.84140671277128  0.51940108420842  0.03131075057506
 6 -4.55684279077908 -1.98605702750275  0.31393167016702
 6 -4.45902771817182  2.76520815391539  0.87551043264326
 6 -9.10717342204221  3.10373439753975 -0.11841134283428
 6 -9.43984208180818 -1.74876790639064 -0.62224228292829
 7 -4.79193426532653  0.34548394609461  0.63126215831583
 6 -3.90152741834183 -0.81131083788379  0.63762431783178
 6 -2.53508692729273 -0.47744950415042  0.90140220252025
 6 -2.55148511431143  1.05351550035004  1.10812297479748
 6 -3.93011927482748  1.44270435563556  0.88049282398240
 6 -2.11250753645364  1.47128892479248  2.49730429322932
 6 -1.69610835923592 -0.91715427882788 -0.11876054975498
 6 -0.09738785708571 -1.04895660226023  0.36703577707771
 6  0.90404148334833 -1.27874511141114 -0.74669284308431
 8  0.68847891599160 -0.81258387088709 -1.92717370757076
 8  1.94759504610461 -1.96295659425943 -0.29689461196120
 7 -6.79031077327733  2.62398276827683  0.34956870477048
 6 -5.61083164406441  3.34901354455446  0.53951024722472
 6 -6.03059727492749  4.82118180298030  0.58774364296430
 6 -7.28578929232923  4.88916500700070  0.28506508980898
 6 -7.84369607350735  3.41107991639164  0.25391022242224
 6 -5.11122604290429  5.95261269176918  0.82778044604460
 6 -8.27624918621862  6.13217013711371  0.39276880058006
 8 -7.80547446364637  7.20899251585158  0.60210806760676
 7 -8.77758131163116  0.69053991319132 -0.32888553765377
 6 -9.57910158255826  1.88563329862986 -0.33735478777878
 6 -10.93892052235224  1.57483735483548 -0.59670545174518
 6 -11.02389674717472  0.15850675507551 -0.80824167966797
 6 -9.66103776707671 -0.36727489068907 -0.59986206290629
 6 -12.13124990029003  2.54447064016402 -0.95743039383938
 6 -12.22062518301830 -0.55518908120812 -1.06251438513851
 6 -12.63073993609361 -0.65973813901390 -2.55338813351335
 7 -7.12888937183718 -1.49866242754275 -0.02216486098610
 6 -8.08608126972697 -2.26206620332033 -0.40053325132513
 6 -7.44784236933693 -3.62265958835884 -0.54053506360636
 6 -6.11680730193019 -3.52500166106611 -0.23796205680568
 6 -5.91199748844884 -2.17772658715872  0.22466865116512
 6 -8.39977850135013 -4.84646202400240 -0.84817763366337
 6 -4.92887909240924 -4.48880467856786 -0.00499247354735
 8 -4.48911065976598 -5.64806534483448 -0.20965045844585
 6 -3.89921364676468 -3.41409196839684  0.44369901710171
 6 -3.34915842674267 -3.67208338383838  1.78050776377638
 8 -3.95659089918992 -3.91028776357636  2.82891156095610
 8 -1.93617529242924 -3.65846215151515  1.67418735793579
 6 -1.17259578167817 -4.05815090519052  2.73570799599960
 6  3.06508840164016 -2.15824100100010 -1.27913915801580
 6  4.07330109750975 -1.17047404850485 -0.94946047834783
 6  5.24590534593459 -1.10660753215322 -1.65772197379738
 6  5.52943692749275 -1.76408954365437 -3.08519550175017
 6  6.35544936953695 -0.05842349524952 -1.29788634713471
 6  7.61583027702770 -0.74609039113911 -0.74242097939794
 6  8.72682524282428  0.16228186278628 -0.25752423292329
 6  9.87207029642964 -0.34805172547255  0.23907560186019
 6  9.67451496779678 -0.91095991069107  1.59253362216222
 6  11.09067139713971  0.69905475967597  0.11483632203220
 6  12.33396866736674  0.05594690189019  0.02120043124312
 6  13.79658120072007  0.87653492819282  0.02545544394439
 6  15.03907024222422  0.36116939503950  0.34013867596760
 6  15.08566355445545 -0.18341062156216  1.68910883488349
 6  16.05467509590959  1.32075697769777  0.01980518581858
 6  17.39861934003400  0.55871109550955  0.00616374247425
 6  18.41949149654966  1.58537572877288 -0.39968011481148
 6  19.77902010311031  0.94783327812781 -0.24470455415542
 6  20.06230603190319  0.05185061536154 -1.49425521672167
 6  20.79462663156316  2.03966538453845 -0.31499659555956
 1 -3.58144878317832  3.85174642564256  0.92956235793579
 1 -9.77047102960296  3.96989607470747 -0.13254688858886
 1 -10.36237872947295 -2.37144754405441 -0.57143996989699
 1 -2.53086560336034 -0.61879949774978  1.77456750505050
 1 -1.82798213681368  1.52800327652765  0.19894634803480
 1 -1.10711209490949  1.14076239063906  2.66221693279328
 1 -1.81927010091009  2.74902347874788  2.76019213701370
 1 -2.78115044754475  1.29556744204420  3.29745561466147
 1 -2.03078209850985 -1.95953722672267 -0.47334512131213
 1 -1.35971114011401 -0.41306277917792 -0.80484027482748
 1  0.40221822012201 -0.34145557885789  1.09787565276528
 1  0.04801108130813 -2.06628296209621  0.95660589268927
 1 -4.44771930233023  6.10071789968997 -0.50127516981698
 1 -5.48117839843984  7.04911758765877  0.64161106720672
 1 -4.38578960716072  5.97841680268027  1.58741651395139
 1 -9.31659467356736  5.98754386358636  0.04089771397140
 1 -12.25858541214121 -1.65447631513151 -0.49345377257726
 1 -12.99338555355535 -0.02019561976198 -0.24339197559756
 1 -13.47374519761976 -1.60750286568657 -2.47388450555055
 1 -13.16346331013101  0.46022344384438 -3.09471164066407
 1 -11.55941276567657 -0.62479579657966 -3.52286889428943
 1 -9.09964914821482 -5.12702925852585 -1.63158538653865
 1 -7.84332954755476 -5.88112812541254 -0.76619627152715
 1 -9.00618789878988 -5.09600156135614  0.28363297279728
 1 -2.89208879027903 -3.29199292419242 -0.03070137693769
 1  3.50629224462446 -3.21890916471647 -0.67856357345735
 1  2.88915320412041 -2.57694360936094 -2.22574280958096
 1  3.90234756245625 -0.65899864826483 -0.19177557595760
 1  4.90329338633863 -1.30486395889589 -3.70802091709171
 1  6.48465204360436 -1.31692036743674 -3.67654887878788
 1  5.68348217561756 -3.06821943624362 -2.73554773857386
 1  6.61254167606761  0.46495183258326 -2.32812542974297
 1  6.03570868026803  0.64975052285229 -0.57634189758976
 1  7.19048022692269 -1.57132532963296  0.26951867346735
 1  8.05482088048805 -1.24607339763976 -1.57472694859486
 1  9.11858398979898  0.88979957475748 -0.84630741604160
 1  8.27090558865887  0.56384157235724  0.49300500890089
 1  10.17452990009001 -1.04315175887589 -0.28483564116412
 1  8.87334957925793 -1.64867368306831  1.96615497629763
 1  10.70688675807581 -0.94744862606261  2.07705959735974
 1  9.49720293189319 -0.03332455485548  2.26620792589259
 1  11.00903454125413  1.41374413431343 -0.81133830543054
 1  10.98859860646064  1.51395027062706  0.87365124542454
 1  12.70386792899290 -0.21112355185519  1.01436511981198
 1  12.30870302430243 -0.80028824942494 -0.57162015951595
 1  13.66054092409241  1.23661320632063 -0.64380328492849
 1  13.55762780758076  1.61948619991999  0.75318110751075
 1  14.99058048384839 -0.40931844784478 -0.61267945914591
 1  15.37131703160316  0.80575097059706  2.19298207120712
 1  14.04436170967097 -0.63244091599160  2.13857135523552
 1  16.07180421352135 -0.91895547864786  1.61460793849385
 1  16.05088622352235  1.89077907130713 -0.80563053775378
 1  16.04874890749075  2.31339087458746  0.76750507370737
 1  17.46783809890989  0.08356152675268  1.34788497519752
 1  17.48236576077608 -0.41582341314131 -0.67959933733373
 1  18.24354936203621  1.99044559235924 -1.34843783208321
 1  18.17261725782578  2.42880678757876  0.28133480398040
 1  19.96503906510651  0.30717356355636  0.85232858365837
 1  19.86978529652965  0.80254530413041 -2.33275540074007
 1  21.40917520752075 -0.37795959775978 -1.45408954235424
 1  19.54582730973097 -0.96317403580358 -1.50618869356936
 1  20.86850362896289  2.49557913701370  0.66972772637264
 1  21.65693343364337  2.05107168986899 -0.48616133113311
 1  20.27465411831183  2.69911739893989 -0.76721151745174
 1  0.18353272817282 -3.95768851825182  2.40177852585259
 1 -1.40243992499250 -5.06146342004200  2.80525116171617
 1 -1.63977799109911 -3.29374785188519  3.76952110531053
 8 -12.03521189548955  3.73589838903890 -0.94568638233823
 1 -13.25435594709471  1.85507674777478 -1.14073467846785

