%nproc=4
%Mem=2GB
# td=(NStates=1) iop(3/107=0140000000,3/108=0140000000) iop(3/107=0140000000,3/108=0140000000) CAM-B3LYP/6-31G(d,p) 

TD

0 1
12 -6.71279385148515  0.64499364346435  0.10587820732073
 6 -4.49941704820482 -1.93547196899690  0.57185746274627
 6 -4.18402021742174  2.81968360146015  0.78130101170117
 6 -9.12543524822482  3.19132315641564 -0.14672417411741
 6 -9.30612871047105 -1.84534756435644 -0.50835089378938
 7 -4.76607167906791  0.36640603830383  0.53195222732273
 6 -3.96107337293729 -0.74521422822282  0.73251380678068
 6 -2.44801822042204 -0.38669042824282  1.05440750305031
 6 -2.53304327012701  1.15505565436544  1.14099626212621
 6 -3.79089535243524  1.49912999819982  0.74034880958096
 6 -1.82032831853185  1.49275107100710  2.53844840764076
 6 -1.49762851125113 -0.98122068546855 -0.09932860656066
 6 -0.10070818911891 -0.92780448704871  0.23174224772477
 6  0.83947502670267 -1.26055329222922 -0.93665183898390
 8  0.57211727982798 -0.82743535603560 -2.13860485068507
 8  1.75765605220522 -1.81721201980198 -0.50415533803380
 7 -6.78011975417542  2.58647901790179  0.22513626152615
 6 -5.57579814071407  3.30362900610061  0.64146044224422
 6 -5.98059227442744  4.84342402720272  0.79717458605861
 6 -7.37670838423842  4.79511560206021  0.41921850515052
 6 -7.81917362126213  3.47738654705471  0.23739857125713
 6 -5.01950687098710  6.05096252675268  1.00300796879688
 6 -8.11534309560956  6.14108102820282  0.10471999569957
 8 -7.44928884508451  7.23054467106711  0.21759961676168
 7 -8.85431898539854  0.64510536973697 -0.43911656075608
 6 -9.50934460686069  1.90219495479548 -0.37147820012001
 6 -10.93319995029503  1.48831870297030 -0.61830761196120
 6 -11.02992735023502  0.15732663706371 -0.83633448894889
 6 -9.67782944624462 -0.28347651085108 -0.62778485518552
 6 -11.90541731703170  2.44146033913391 -0.95114976577658
 6 -12.25627874837484 -0.58106166846685 -1.06706484018402
 6 -12.06993385548555 -0.98675084028403 -2.52676547124713
 7 -7.04022050495050 -1.46226878817882  0.07016437193719
 6 -8.04066672827283 -2.27631762846285 -0.19301249924993
 6 -7.56402398749875 -3.80387771017102 -0.17642865296530
 6 -6.22769839103910 -3.67169633053305  0.02440417981798
 6 -5.85666195489549 -2.20416923142314  0.31737792209221
 6 -8.39609813331333 -4.73903128092809 -0.61961477737774
 6 -4.99926613111311 -4.38452425052505  0.13377140284028
 8 -4.82827457615762 -5.51187172547255 -0.18606810021002
 6 -3.73853757915792 -3.30972153135314  0.49102374957496
 6 -3.12997650855086 -3.65078125362536  1.78776848984899
 8 -3.65470071017102 -4.03088982378238  2.91032970277028
 8 -1.60986266116612 -3.40849715501550  1.68202814201420
 6 -0.95703422552255 -3.89022411251125  2.88391281648165
 6  2.92807470027003 -2.19925510241024 -1.37613885798580
 6  4.19002276967697 -1.36771377247725 -1.24121965426543
 6  5.12105286068607 -1.08010488188819 -2.02290849244924
 6  5.24366835063506 -1.74074720942094 -3.38892587478748
 6  6.17768159275928 -0.06490414331433 -1.61296785528553
 6  7.43534222822282 -0.75674145624562 -0.90469720702070
 6  8.66148870917092  0.19170480508051 -0.53819229972997
 6  9.70507359675968 -0.52364928522852 -0.25534384008401
 6  9.54071158745874 -1.31470028472847  1.00304467326733
 6  10.88892122212221  0.59093394759476  0.03441828022802
 6  12.21133640414041 -0.09194788758876  0.24526283748375
 6  13.38545008760876  1.02966024072407  0.27154005240524
 6  14.84192052725273  0.27696097419742  0.39956461856186
 6  14.93649863796380 -0.63248552905291  1.52834275827583
 6  16.03830345874588  1.16548145014501  0.40644384968497
 6  17.41269074717472  0.62659788418842  0.25138826492649
 6  18.28960850825083  1.77905509670967  0.10112996619662
 6  19.68975117621762  1.16110460526053  0.05025494179418
 6  19.62946274757476  0.41692712301230 -1.52543833503350
 6  20.74234140304031  2.21295271327133  0.17734263836384
 1 -3.45318595689569  3.30196144714471  1.12330173187319
 1 -9.83366734923492  4.00055914101410 -0.17598123202320
 1 -9.94308680028003 -2.68158855815582 -1.12996582248225
 1 -1.84417693449345 -0.87073469126913  1.89307935623562
 1 -1.92918225682568  1.62612308850885  0.26826327972797
 1 -0.52955433913391  1.26588490289029  2.31673238433843
 1 -1.89954812871287  2.29644822122212  2.91274739253925
 1 -2.44363669616962  1.31904979027903  3.42308817791779
 1 -2.06318533883388 -2.22414368736874 -0.16604439123912
 1 -1.69284445344534 -0.41378285118512 -1.52398218901890
 1  0.22093009130913  0.36322488918892  0.33800966616662
 1 -0.32969668946895 -1.56269260306031  1.61177140924092
 1 -4.10282481288129  6.31449927782778  0.25644060176018
 1 -5.92222250285028  7.13230590649065  1.08011491759176
 1 -4.65437646584659  5.87682664366437  1.97014478677868
 1 -9.15328834293429  6.23086819601960  0.33495711991199
 1 -12.16792634623462 -1.51165203270327 -0.52778720592059
 1 -13.03145936093609 -0.08298189838984 -0.68453609000900
 1 -12.96933475657566 -1.38785090049005 -2.85373249034904
 1 -12.04212117591759 -0.49690226872687 -3.37962013151315
 1 -11.47827465186519 -1.84511782878288 -2.90932754015402
 1 -9.13261244454445 -4.77204375997600 -1.48843107110711
 1 -7.59619483408341 -5.53079309190919 -1.04259391129113
 1 -9.01705898589859 -4.94529649084909  0.19350395989599
 1 -3.29228881028103 -3.31553527842784 -0.68695700250025
 1  2.88201981738174 -3.33892116591659 -1.06029174627463
 1  2.44873916271627 -2.02553846884689 -2.44718495379538
 1  4.18949627732773 -0.67848059645965 -0.34724112251225
 1  4.35275833283328 -1.01877535003500 -4.04007412241224
 1  6.25986956535654 -1.81152982838284 -3.79294051795179
 1  4.85343917131713 -3.02426504080408 -3.26213039683968
 1  6.41326174807481  0.72463780118012 -2.35905852305231
 1  5.69862497189719  0.79186473427343 -0.73897816121612
 1  7.11269244814481 -1.22064026112611 -0.06619489788979
 1  7.76952235063506 -1.50988977927793 -1.48489796569657
 1  8.67826995839584  0.90747134193419 -1.15887867316732
 1  8.24596309440944  0.51899708790879  0.15840154855486
 1  10.00106255335534 -1.37307475117512 -0.98897605520552
 1  8.39278152245225 -1.75493430913091  1.16529489028903
 1  10.26944301370137 -1.82293617481748  1.30454234563456
 1  9.85438865046505 -0.46318754115412  1.75914721982198
 1  10.94366800460046  1.38441120102010 -0.90542771437144
 1  10.58758850545054  1.21710058565857  0.91415529582958
 1  12.09786732893289 -0.88490092959296  1.24318800210021
 1  12.33978613261326 -0.79950817141714 -0.69895289278928
 1  13.32886775677568  1.64561410641064 -0.38459736433643
 1  13.26771881668167  1.68725297659766  1.15307109650965
 1  14.96423784958496 -0.47013452945295 -0.49042723392339
 1  15.10575047494750  0.02840323582358  2.50053282628263
 1  13.97358463196320 -1.31473914581458  1.89626712481248
 1  15.69627666076608 -1.55290887398740  1.29378585628563
 1  15.90787192209221  1.85117511091109 -0.57348732343234
 1  16.02095612821282  1.81056059155916  1.09669799299930
 1  17.57378869396940 -0.05115194459446  0.96572675937594
 1  17.38662618681868 -0.02291412221222 -0.76636801420142
 1  17.53778878597860  2.18012456025603 -0.77031001930193
 1  18.16798679477948  2.74051795869587  1.03629029952995
 1  19.61833439463947  0.10564341054105  0.91606495729573
 1  19.84994331233123  1.68006305590559 -2.34057618281828
 1  20.55496978697870 -0.12976477827783 -1.81619575297530
 1  19.09929265626563 -0.38553627202720 -1.66358443314331
 1  20.77267404600460  2.45656523562356  1.44726548014801
 1  21.67324506480648  1.97002358505851 -0.10462317731773
 1  20.56079273217322  2.91879936713671 -0.38632342864287
 1  0.21229560446045 -3.78877162656266  2.64096244424442
 1 -1.06150583158316 -4.89903717741774  2.94640527712771
 1 -1.60664467776778 -3.30637911501150  3.76746089928993
 8 -11.91768014231423  3.60743554275428 -0.91374318801880
 1 -12.76805731723172  2.11763300340034 -0.81889249424942

