%nproc=4
%Mem=4GB
# td=(NStates=1) iop(3/107=0140000000,3/108=0140000000) iop(3/107=0140000000,3/108=0140000000) CAM-B3LYP/6-31G(d,p) 

TD

0 1
12 -5.71746325292529  1.26143101740174  0.13357196239624
 6 -5.09195958315832 -2.14718318161816 -0.35685255205521
 6 -3.39980876997700  1.21250153495350  2.72487786108611
 6 -6.36099489518952  4.50717398159816  0.64922513131313
 6 -8.03556932403240  1.10777162786279 -2.36562423592359
 7 -4.38589284258426 -0.27518571037104  1.07342868166817
 6 -4.24427795529553 -1.55513921552155  0.67756010561056
 6 -3.13644676917692 -2.25887919071907  1.45091945564556
 6 -2.93425659665967 -1.25050794169417  2.55194175027503
 6 -3.56567399479948  0.00335770807081  2.06034061926193
 6 -3.52232527192719 -1.71174461586159  3.91029372877288
 6 -1.96990218341834 -2.62371978127813  0.57577288278828
 6 -0.94532617611761 -3.45487306790679  1.42952654065407
 6  0.26792189268927 -3.86733057375738  0.61508970367037
 8  0.46903696799680 -3.51223853745375 -0.56240247444744
 8  1.17809465516552 -4.55089470677068  1.31218582588259
 7 -5.01580239653965  2.61357073397340  1.47718795049505
 6 -4.10139222902290  2.45834325602560  2.44895549884989
 6 -3.89050855455546  3.61305980818082  3.24301485768577
 6 -4.59957050975098  4.63230475877588  2.56163543484348
 6 -5.38535463966397  3.98137623282328  1.42258835113511
 6 -2.81982734583458  3.83429080488049  4.29957414681468
 6 -4.50901743234323  6.07646506700670  2.85698520332033
 8 -3.92816286428643  6.69291717971797  3.71905580548055
 7 -6.89852365226523  2.62649254505451 -0.70842249854986
 6 -7.10333304810481  3.89206882408241 -0.33772546124612
 6 -8.02391757815782  4.60338706350635 -1.19041315081508
 6 -8.53353280658066  3.59093602350235 -2.03860280468047
 6 -7.84068295879588  2.42844885368537 -1.69875582208221
 6 -8.41687467836784  6.01369127852785 -0.98869837863786
 6 -9.53293765706571  3.79920031823182 -3.13489812261226
 6 -8.99866131983198  4.25429357555756 -4.47326373037304
 7 -6.40181860086009 -0.16043106080608 -1.07698279027903
 6 -7.40207973757376 -0.07802387098710 -2.03580779147915
 6 -7.55027253445345 -1.37530923452345 -2.78289081168117
 6 -6.57839738853885 -2.12616218801880 -2.06974314001400
 6 -5.99068748414841 -1.41951551665167 -1.15137126752675
 6 -8.54676013381338 -1.62169229522952 -3.76988388458846
 6 -6.21060472757276 -3.57328291219122 -1.96353990909091
 8 -6.50314470997100 -4.54312201060106 -2.57276354145415
 6 -4.98530709280928 -3.52937098969897 -0.96646896669667
 6 -5.27779525692569 -4.59499494059406  0.08108177997800
 8 -5.84636040764076 -4.43022203030303  1.10334669806981
 8 -4.88951865006501 -5.79198039443944 -0.37220036463646
 6 -5.25713327752775 -6.96847870117012  0.47614944474447
 6  2.41426239943994 -5.04856597679768  0.63640759515952
 6  3.56927146214621 -4.14164432533253  0.97138503830383
 6  4.10162955315532 -3.35945881598160  0.12850648564856
 6  3.73932827172717 -3.14879982128213 -1.25070457495750
 6  5.24477090289029 -2.44924997259726  0.65439923872387
 6  6.60755562686269 -2.71482440764076  0.00123159055906
 6  7.68983430703070 -1.82579193469347  0.54839052955296
 6  9.08429925122512 -2.02268710231023  0.03818603610361
 6  9.49508589028903 -3.51788242864286  0.25052159445945
 6  10.08680926002600 -0.89836007340734  0.51253376887689
 6  11.41860916331633 -0.89929953685369 -0.22419118531853
 6  12.41222891149115  0.14712934043404  0.33933078067807
 6  13.68759121492149  0.29374424432443 -0.58251301450145
 6  14.59870816981698 -0.94371377397740 -0.36622077297730
 6  14.33986992659266  1.60900707230723 -0.08258751355136
 6  15.54295848624862  2.17150517871787 -0.96203119811981
 6  16.01987457185718  3.61923667646765 -0.61154176737674
 6  17.35666091519152  3.99043688528853 -1.38673260846085
 6  17.13505609530953  3.82428732043204 -2.89389161336134
 6  17.90914032013201  5.40505577087709 -0.89530898979898
 1 -2.87745346814682  0.99048332373237  3.56990745914591
 1 -6.41373935273527  5.59407478787879  0.67470646234623
 1 -8.83417382458246  0.85903620652065 -3.02761824062406
 1 -3.39757082188219 -3.39433474887489  1.74005206600660
 1 -1.89506663056306 -1.21342900450045  2.69581085718572
 1 -3.04855463456346 -2.85552871407141  4.13032657665767
 1 -3.15939673237324 -1.01549145354535  4.78769079887989
 1 -4.55698821052105 -1.88468754965496  3.89003295379538
 1 -2.23168848254825 -3.24299381668167 -0.53201382518252
 1 -1.60859869226923 -1.76103521982198  0.34148226982698
 1 -0.59620505400540 -3.07104840044004  2.19575379407941
 1 -1.46009073067307 -4.42745987718772  1.73328512651265
 1 -1.79901001480148  3.76112563696370  3.79933584328433
 1 -2.91525251535153  4.85657286328633  4.66838309600960
 1 -3.11016401140114  3.22666366386639  4.98638364436444
 1 -5.12182524642464  6.60109430383038  2.12669799119912
 1 -10.08093722722272  2.66699735683568 -3.36466971867187
 1 -10.28594939283929  4.65483932803280 -2.79327961866187
 1 -9.84005380518052  4.39022743674368 -5.15381058335833
 1 -8.46621613101310  4.99008875427543 -4.62076203120312
 1 -8.51502135113511  3.42881224002400 -4.97261718651865
 1 -8.46779436903691 -1.06531707460746 -4.83791478977898
 1 -8.86886786978698 -2.72889629472947 -3.81793443044304
 1 -9.58427850735074 -1.19555637903790 -3.68303521022102
 1 -4.20987834523452 -3.78995382198220 -1.65367865476548
 1  2.43844497749775 -5.99103704670467  1.16146210311031
 1  2.18063880728073 -5.17414439053905 -0.33110656025603
 1  3.74392651495150 -4.07277655945595  1.95248025562556
 1  2.90139512621262 -3.58894451555156 -1.52981552255225
 1  3.80001461476148 -2.00080363966397 -1.35749822032203
 1  4.54009618361836 -3.46738046724672 -2.03441236713671
 1  5.08975901680168 -1.41249767376738  0.41532341584158
 1  5.41514004130413 -2.61066269866987  1.80553543384338
 1  7.03619114581458 -3.80528372047205  0.14852273627363
 1  6.71302146254625 -2.56607421642164 -1.15318591409141
 1  7.49902883418342 -0.85756908200820  0.52599984548455
 1  7.89872197509751 -1.79569615271527  1.68496288158816
 1  9.13084719401940 -1.97780605580558 -1.06724006210621
 1  8.80856537523752 -4.21039981138114 -0.36281007340734
 1  10.58281762256226 -3.56349055115512 -0.08433854735474
 1  9.47631669306931 -3.58750984248425  1.37074751745175
 1  9.66385553615362  0.00983670987099  0.40857622142214
 1  10.20203030053005 -1.07509404330433  1.57369690969097
 1  11.86583172447245 -1.85946597849785 -0.22021639483948
 1  11.24644073077308 -0.69857276217622 -1.40457179077908
 1  11.91458249174918  1.07205163436344  0.47377782258226
 1  12.72902772607261 -0.04484329292929  1.43484176437644
 1  13.34427122782278  0.33402783508351 -1.65787802650265
 1  15.01313065136514 -0.83690190289029  0.65170085008501
 1  13.97609318031803 -1.75401441774177 -0.59688601010101
 1  15.54559554795480 -1.06389958815882 -1.12815970847085
 1  13.63675186938694  2.49511413051305 -0.02618440614061
 1  14.49179587988799  1.48641893109311  0.89805701960196
 1  16.51760341614161  1.61099971267127 -0.97531402210221
 1  14.92878846224622  2.17602151495150 -1.93994537423742
 1  15.02626403100310  4.31283666166617 -0.62814481258126
 1  16.38070084018402  3.31269791119112  0.49269917031703
 1  18.08324200560056  3.31590308150815 -0.85333441304130
 1  16.13104382478248  4.47199372827283 -3.26701906170617
 1  18.01935785928593  4.09334884818482 -3.69111371647165
 1  17.05635583578358  2.83722479247925 -3.23109114371437
 1  17.86486253345334  5.37830904840484  0.28215988018802
 1  18.74676219851985  5.53711786398640 -1.43887080148015
 1  17.07152870377038  6.11091059415942 -1.33529759105911
 1 -5.11807710911091 -7.73376280938094 -0.33084662236224
 1 -6.29584401470147 -6.88596568316832  0.49680318781878
 1 -4.48814698329833 -6.97205878147815  1.32728718531853
 8 -8.02615020662066  6.81589809060906 -0.19059684368437
 1 -9.08137643474347  6.43492913781378 -1.72147783058306

