%nproc=4
%Mem=4GB
# td=(NStates=1) iop(3/107=0140000000,3/108=0140000000) iop(3/107=0140000000,3/108=0140000000) CAM-B3LYP/6-31G(d,p) 

TD

0 1
12 -5.58718022462246  1.24139901420142  0.13102170737074
 6 -5.05872625982598 -2.11996045934593 -0.39386625342534
 6 -3.43489227832783  1.16009629442944  2.77580295359536
 6 -6.19375817151715  4.54392765696570  0.67588779757976
 6 -7.99768553565357  1.14080493119312 -2.41789946344634
 7 -4.43873812711271 -0.29928812061206  0.99790112891289
 6 -4.26504003150315 -1.58686238783878  0.62401475107511
 6 -3.26029915441544 -2.31002430523052  1.56858122182218
 6 -2.97553072407241 -1.40921381228123  2.59647620372037
 6 -3.58787621502150 -0.06362899059906  2.11294587978798
 6 -3.66691973137314 -1.78415185658566  4.00524322372237
 6 -1.96243143634363 -2.53222063136314  0.71037634313431
 6 -1.01279292279228 -3.51931951255126  1.47778136613661
 6  0.24310941144114 -3.76189002970297  0.60085828052805
 8  0.45533559785979 -3.32883019661966 -0.46124235843584
 8  1.00056690239024 -4.64441405870587  1.29475408270827
 7 -4.90957177347735  2.52836221312131  1.45090532223222
 6 -3.98400048984898  2.38132555425543  2.39968057135714
 6 -3.73391289498950  3.59270777297730  3.20038059425943
 6 -4.48766931963196  4.58118964726473  2.57671694299430
 6 -5.19120522472247  3.97075517071707  1.53036912921292
 6 -2.81082644574457  3.72116949274927  4.40774496389639
 6 -4.49086561716172  6.05758317881788  2.87663716851685
 8 -3.82742279027903  6.46603449144914  3.77564146404640
 7 -6.87520132003200  2.53567346314631 -0.64099575587559
 6 -6.88196091089109  3.83450306750675 -0.31987367606761
 6 -7.88355354175417  4.59309603440344 -1.14767887738774
 6 -8.43404285758576  3.61779870977098 -2.03669261366137
 6 -7.84640353085309  2.36019202800280 -1.71968791529153
 6 -8.17342033293329  6.01615152455246 -1.14789429822982
 6 -9.49720408370837  3.85396579477948 -3.11485611841184
 6 -8.89324077777778  4.13992213841384 -4.55957236123612
 7 -6.33061148014801 -0.08495351305131 -1.13260835283528
 6 -7.27897742734273 -0.06338240684068 -2.13750796149615
 6 -7.58784629182918 -1.34361606520652 -2.74499702230223
 6 -6.60800034883488 -2.16272584438444 -2.08255442114211
 6 -6.00721913731373 -1.42567613271327 -1.14531066146615
 6 -8.55143060086009 -1.75500562656266 -3.78949584578458
 6 -6.14461812891289 -3.54670025392539 -2.07333088818882
 8 -6.55344974047405 -4.56532423082308 -2.67166343144314
 6 -5.07368593069307 -3.57044509710971 -0.89080139993999
 6 -5.43627110451045 -4.61833727482748  0.11557522932293
 8 -5.93845961756176 -4.44093310141014  1.14327069046905
 8 -5.11789148734873 -5.83248444484448 -0.35283842844284
 6 -5.57030459465947 -6.99260111341134  0.46059788958896
 6  2.32797377057706 -5.06923804400440  0.58746270067007
 6  3.37943247824782 -4.09615977687769  0.99961786158616
 6  4.09142853305331 -3.25240811091109  0.19727336233623
 6  3.75256959585959 -3.04111905320532 -1.28122762726273
 6  5.21347777357736 -2.47935298289829  0.81083488228823
 6  6.52353722502250 -2.66328925412541  0.12040350775077
 6  7.68207353095310 -1.92614196969697  0.78326401690169
 6  9.08479930123012 -2.02000683428343 -0.01716949944995
 6  9.69491587328733 -3.37282792319232  0.03646018831883
 6  9.98900948004800 -0.92046228362836  0.52315483098310
 6  11.28071537393739 -0.80158976587659 -0.42652141834183
 6  12.23885157375737  0.27214184168417  0.12616946454645
 6  13.56568902470247  0.48905377527753 -0.59046380958096
 6  14.51332963196320 -0.68994839743974 -0.31733588448845
 6  14.18857479707971  1.79242541414141 -0.17035629042904
 6  15.50565475587559  2.14369239743974 -0.86865186018602
 6  16.10837342174217  3.62663741654165 -0.67555816901690
 6  17.37011226032603  3.95441328292829 -1.35519945514551
 6  17.18726131583158  4.00344523622362 -2.90096232043204
 6  17.88141754785478  5.30985625092509 -0.99680913981398
 1 -2.85475119791979  1.10536481188119  3.64433490189019
 1 -6.51449942874287  5.52486786718672  0.70369936163616
 1 -8.88835924312431  0.91498180108011 -3.28711419021902
 1 -3.63479454425443 -3.28566388178818  1.91929999079908
 1 -1.95069219311931 -1.05221288288829  2.68193947004700
 1 -3.26056583568357 -2.57349051025102  4.30824436843684
 1 -3.78420921362136 -0.73459336373637  4.76531856165617
 1 -4.75061757345735 -2.16633571447145  3.65007895839584
 1 -2.26831214491449 -3.02345186248625 -0.12769339313931
 1 -1.69324715711571 -1.42435155145515  0.24197231883188
 1 -0.66640207370737 -3.04088538413841  2.40763498219822
 1 -1.55961068266827 -4.44045117631763  1.66403820182018
 1 -1.69536965076508  3.72667219161916  4.14459036873687
 1 -2.65790678077808  4.70202740874087  4.91310756845685
 1 -3.29451244624462  2.97039803730373  5.10874588058806
 1 -5.11603466736674  6.56353054745475  2.16538185958596
 1 -10.22622175567557  2.95652630973097 -2.90705395709571
 1 -10.06921771967197  4.80238408250825 -2.73248353905391
 1 -9.62196199599960  4.78004641864186 -5.30216541884188
 1 -7.69610912031203  4.49357910331033 -4.26531648664866
 1 -8.53771362036204  3.08627798659866 -5.12463238803880
 1 -8.43054064366437 -1.01930247314732 -4.58568956725673
 1 -8.00016099909991 -2.77143054815482 -4.24915755275527
 1 -9.67068714821482 -1.88075489888989 -3.49642654935494
 1 -4.30169752715272 -4.02460728732873 -1.35514880178018
 1  2.46179731273127 -6.04370231323132  0.75219117601760
 1  2.17608835223522 -4.86886386248625 -0.57839128872887
 1  3.86383850615062 -4.35845512731273  2.04506951455146
 1  2.74335932263226 -3.06154177527753 -1.51746428742874
 1  4.36349096239624 -2.07234079337934 -1.55861833233323
 1  4.50370254425443 -3.73495722492249 -1.69327825372537
 1  5.05816585748575 -1.41002742674267  0.77939982348235
 1  5.44174270157016 -2.74284591699170  1.87933281358136
 1  6.69247677437744 -3.91337452955296  0.36169405340534
 1  6.33483364376438 -2.64722233123312 -0.99564015951595
 1  7.33382231353135 -0.88637196229623  0.95578282378238
 1  7.80831293419342 -2.31671825492549  1.89501388668867
 1  8.61338544784478 -1.73266154135414 -1.07226056415642
 1  9.11507602630263 -4.17293606500650 -0.26893068546855
 1  10.58439778057806 -3.52640684278428 -0.58846896039604
 1  10.12010107150715 -3.35648674017402  1.17147759045905
 1  9.61220037063706  0.05073079927993  0.40281564536454
 1  10.35747584508451 -1.16761329522952  1.53070261026103
 1  11.68877401870187 -1.72494252615262 -0.43741811501150
 1  10.96361244794480 -0.82293519841984 -1.43970530413041
 1  11.75045607910791  1.33774820402040  0.04201464626463
 1  12.56954177747775  0.15141633303330  1.18152643284328
 1  13.49448624932493  0.51318575087509 -1.54296653535354
 1  14.72247158545854 -0.67322553525352  0.73824950495050
 1  14.18315388638864 -1.75105412171217 -0.57592391389139
 1  15.35290627902790 -0.71387458565857 -0.82502939543954
 1  13.46318451265127  2.61667628672867 -0.35081686938694
 1  14.38323502380238  1.73368365756576  0.91370858475848
 1  16.31986364216421  1.28643725642564 -0.87210370107011
 1  15.47233281668167  1.98186209900990 -1.84934631433143
 1  15.05822722732273  4.25407078507851 -0.63831582968297
 1  16.29440221032104  3.64168080948095  0.51546144654465
 1  18.16118980038004  3.23622511371137 -1.10307938753875
 1  16.56746746714671  4.79525605450545 -3.18848120792079
 1  18.08699462296230  4.07906742004200 -3.39500410551055
 1  16.82171237143714  3.17119818981898 -3.41719975457546
 1  17.95530157735773  5.32802401990199  0.06024768896890
 1  18.79614713701370  5.58556270847085 -1.48931584598460
 1  17.09558110901090  5.96672617571757 -1.09516357765777
 1 -5.29674497589759 -7.97708714181418  0.14848131043104
 1 -6.53737816811681 -6.91021810841084  0.63037654515452
 1 -5.02934110271027 -6.99593116871687  1.63100755735574
 8 -7.69629722132213  6.86013251405141 -0.39732751675168
 1 -8.88541683878388  6.32938858375838 -1.87622330513051

