%nproc=4
%Mem=4GB
# td=(NStates=1) iop(3/107=0140000000,3/108=0140000000) iop(3/107=0140000000,3/108=0140000000) CAM-B3LYP/6-31G(d,p) 

TD

0 1
12 -5.54120562716272  1.22074694899490  0.22387099229923
 6 -5.02539292649265 -2.17530599389939 -0.26740360716072
 6 -3.47531632073207  1.09747003180318  2.80284565786579
 6 -6.02393118881888  4.57955121932193  0.57622783158316
 6 -8.03421918901890  1.21260211091109 -2.34166183968397
 7 -4.36595084838484 -0.33930212201220  1.09711104990499
 6 -4.27101062856286 -1.58244194579458  0.63071542114211
 6 -3.23317644214421 -2.33443674647465  1.50186455015502
 6 -2.96499967096710 -1.35971886278628  2.65544210031003
 6 -3.62644007140714 -0.06555918361836  2.18302288748875
 6 -3.51753479287929 -1.98348178957896  4.03529622902290
 6 -2.02085727892789 -2.64656206550655  0.72426773227323
 6 -1.11753339683968 -3.55842342294229  1.47372096009601
 6  0.22194729522952 -3.98639247994799  0.59554774947495
 8  0.48619868416842 -3.46844415801580 -0.50276651085108
 8  1.02315916161616 -4.78943856115612  1.29649425672567
 7 -4.86847766406641  2.61822119901990  1.47481771347135
 6 -3.94516660646065  2.29935735743574  2.45787639093909
 6 -3.72843234693469  3.62367086928693  3.17153770997100
 6 -4.44663521622162  4.63411493979398  2.44503377467747
 6 -5.13801990619062  3.93506160136014  1.44155024732473
 6 -2.84159952305231  3.70862823862386  4.35714990439044
 6 -4.45284181478148  6.07534495499550  2.92881238603860
 8 -3.77308735673567  6.46901478947895  3.88199209910991
 7 -6.79573337323732  2.64238413421342 -0.68501015731573
 6 -6.88105081988199  3.95842545974597 -0.38828051675168
 6 -7.87470265666567  4.64450117491749 -1.27228133763376
 6 -8.39066852015201  3.60150708060806 -2.08073701810181
 6 -7.68186707720772  2.35853186198620 -1.78469441594159
 6 -8.12546553745375  6.04703461286129 -1.32585209400940
 6 -9.30694505780578  3.87730812901290 -3.22012664546455
 6 -8.57731918561856  4.10760890709071 -4.54914131813181
 7 -6.39072749174917 -0.10096511421142 -1.10843593559356
 6 -7.37355688528853 -0.05788185678568 -2.11623583428343
 6 -7.61071857905791 -1.31015271887189 -2.66968949154915
 6 -6.72676222502250 -2.22372194399440 -1.97641380708071
 6 -6.00965938133813 -1.36539010411041 -1.08551468186819
 6 -8.65807126492649 -1.78696882288229 -3.74723161936194
 6 -6.25294896199620 -3.51766735063506 -1.95497905300530
 8 -6.61186558205821 -4.49936763516352 -2.64649091419142
 6 -5.16346490859086 -3.59302735533553 -0.80471279107911
 6 -5.39897737513751 -4.71505694679468  0.16557022882288
 8 -5.78485425702570 -4.51384039213921  1.30185654905491
 8 -5.03170286848685 -5.91487268366837 -0.40724386898690
 6 -5.41034859905991 -7.09944179747975  0.36967879767977
 6  2.31435240844084 -5.11346246644665  0.60664461886189
 6  3.42563709870987 -4.11182134303430  0.91877977777778
 6  3.96100549074907 -3.24341721182118  0.18364199919992
 6  3.70266460536054 -3.02871781308131 -1.31074057855786
 6  5.07889431523152 -2.35806085368537  0.64517831663166
 6  6.47906277757776 -2.58326125132513  0.00483195059506
 6  7.61512683628363 -1.72374172967297  0.65523121362136
 6  8.90475129642964 -1.85165999959996 -0.06036381888189
 6  9.51943832553255 -3.26214685508551  0.07823436573657
 6  9.92443302240224 -0.83221345874587  0.46558907440744
 6  11.33030033243324 -0.90490009690969 -0.21613037923792
 6  12.16746443504350  0.37076170367037  0.09733658125813
 6  13.45461791759176  0.50238510841084 -0.57219198239824
 6  14.47235553455346 -0.67801720432043 -0.29253340424042
 6  14.26376231583158  1.84283045464546 -0.18971822662266
 6  15.37314150455046  2.23586161436144 -1.24056905190519
 6  15.97554013841384  3.57294204700470 -0.61347196039604
 6  17.29196444554455  3.96484432603260 -1.33199713491349
 6  17.16094868456846  4.00290518221822 -2.75547777197720
 6  18.00735014111411  5.20643590889089 -0.71249070797080
 1 -2.71157688048805  1.18039231463146  3.72001246964696
 1 -6.04297227602760  5.63406878727873  0.66523551525153
 1 -8.79911031823182  1.17169747264726 -3.12202768156816
 1 -3.73053411821182 -3.13778909430943  1.92189024982498
 1 -1.91889901380138 -1.43634129572957  2.97690896699670
 1 -3.29224900400040 -3.00587374857486  4.30445398939894
 1 -3.26624741744174 -1.39242914731473  4.91118314811481
 1 -4.51879439113911 -2.26143522442244  3.81141509200920
 1 -2.30568588228823 -3.25253477077708 -0.16075669946995
 1 -1.53781161356136 -1.74958407470747  0.29227734933493
 1 -0.79415484898490 -3.22446374197420  2.34956917561756
 1 -1.43788851045104 -4.71785891709171  1.48785058305831
 1 -1.84345445924592  3.65235475987599  4.09405531523152
 1 -2.89035002510251  4.85411261726173  4.73722998069807
 1 -3.29654264926493  3.18660965846585  5.09639464546455
 1 -5.22854591849185  6.73845804020402  2.47475279667967
 1 -9.91102023552355  3.12096275337534 -3.36594984668467
 1 -9.86137693559356  4.70546439053905 -2.79902019271927
 1 -9.44578437823782  4.30932934693469 -5.19527472977298
 1 -8.02572208160816  4.90605035043504 -4.38663861886189
 1 -7.84250409940994  3.32378173697370 -4.84004392919292
 1 -8.43464105370537 -1.02775331823182 -4.51896289458946
 1 -8.30663164616462 -2.70273367846785 -4.12861549854985
 1 -9.80948102760276 -1.64234105750575 -3.30354726142614
 1 -4.27867522492249 -3.73714854145415 -1.32396568346835
 1  2.72774390739074 -6.22147009000900  0.79045500240024
 1  2.14494523792379 -4.96758373447345 -0.47963141274127
 1  3.94406652895290 -4.12479176097610  2.02773778137814
 1  2.84938992569257 -3.55615123622362 -1.42063460446045
 1  3.65596020932093 -2.19627318661866 -1.85976844734473
 1  4.62822499649965 -3.40569429862986 -1.91581050695069
 1  4.71016105700570 -1.44882130613061  0.51626350985099
 1  5.13533206050605 -2.72958459085908  1.62013689398940
 1  6.76714424112411 -3.75705889798980  0.09367725172517
 1  6.15435559595960 -2.47480508950895 -0.99315991149115
 1  7.24738366966697 -0.62343566866687  0.58131537703770
 1  7.95252735563556 -1.92488907200720  1.61253563886389
 1  8.66274038333833 -1.60070834603460 -1.17724106220622
 1  8.78303282198220 -3.84021279267927 -0.29909370177018
 1  10.37883722452245 -3.51337553965397 -0.43718383188319
 1  9.86370543194320 -3.74859595109511  1.07321776447645
 1  9.48186733733374  0.17387311351135  0.29055441924192
 1  10.06103620112011 -1.14274080798080  1.58542808280828
 1  11.78511365266527 -1.87077710961096 -0.01490586378638
 1  10.96232231893189 -0.69772267716772 -1.41336266986699
 1  11.55594662816282  1.40765519471947 -0.18340789598960
 1  12.20374519781978  0.51339253065306  1.29905818601860
 1  13.12853965466546  0.41852628492849 -1.62201444014401
 1  14.91244058235823 -0.88728694139414  0.71663734373437
 1  14.14180975197520 -1.69985900220022 -0.48325464696470
 1  15.32116310471047 -0.50885408360836 -0.92465935843584
 1  13.63552174637464  2.73900851995199 -0.19249103680368
 1  14.65757245754576  1.84049433863386  0.74463167706771
 1  16.09826148194820  1.36384499719972 -1.32150864156416
 1  15.04770035343534  2.39604351715171 -2.21208258795880
 1  15.23396480108011  4.25640101810181 -0.83414541264126
 1  15.94798756885689  3.44819146054606  0.43066296669667
 1  18.07065074647465  3.19389088028803 -1.03528260786079
 1  16.70112083248325  4.82892942184218 -3.26859921972197
 1  18.03795971947195  4.27131664496450 -3.16584118921892
 1  17.08256845704571  3.11207227722772 -3.23500153475348
 1  18.10208625582558  4.89581079857986  0.48008967316732
 1  18.99572709500950  5.32907705990599 -1.11915883028303
 1  17.53394494539454  6.17754725782578 -0.79808386968697
 1 -4.94230953235324 -7.97216664976498  0.01467793009301
 1 -6.44137856815682 -7.28977606420642  0.29335284278428
 1 -5.21752992159216 -6.80398197379738  1.59201365796580
 8 -7.73818140974097  6.90500700150015 -0.50588837283728
 1 -8.68026632373237  6.35558120302030 -2.35365104790479

