%nproc=4
%Mem=4GB
# td=(NStates=1) iop(3/107=0140000000,3/108=0140000000) iop(3/107=0140000000,3/108=0140000000) CAM-B3LYP/6-31G(d,p) 

TD

0 1
12 -5.55088659525953  1.21706658095810  0.12316092129213
 6 -4.98787917511751 -2.08486694999500 -0.38818568536854
 6 -3.37303609270927  1.15866615141514  2.83361873517352
 6 -6.19706850255026  4.62719598379838  0.57235744454445
 6 -7.79900566766677  1.24324517521752 -2.43559123262326
 7 -4.36260051335134 -0.24977316911691  1.01304264306431
 6 -4.21094462196220 -1.55109881148115  0.66399874947495
 6 -3.21451457595760 -2.30293359615962  1.56814117781778
 6 -2.91657482848285 -1.31048393929393  2.67353390949095
 6 -3.59986741414141  0.04050142244224  2.09030361556156
 6 -3.59479251865186 -1.76769021042104  4.06356905630563
 6 -2.02466765996600 -2.61829923922392  0.62534784028403
 6 -1.08018966246625 -3.61118869946995  1.31465505350535
 6  0.18517361786179 -4.03652749344934  0.61490968566857
 8  0.45283534783478 -3.66045335893589 -0.55925215941594
 8  1.06555340104010 -4.79250886818682  1.43340794809481
 7 -4.81365218151815  2.62239161606161  1.37496772847285
 6 -3.95447753755376  2.34611203290329  2.47613821712171
 6 -3.71231073477348  3.66209471167117  3.17212776897690
 6 -4.58857941064106  4.54714624292429  2.56096536783678
 6 -5.19026513071307  3.93583167836784  1.48194428672867
 6 -2.67785314841484  3.85612298809881  4.20286447584759
 6 -4.68771530213021  5.96752417291729  3.00817032183218
 8 -4.02403245124512  6.68685657365737  3.83734763466347
 7 -6.78342214211421  2.69695959175918 -0.76756841314131
 6 -6.88255096989699  3.99624924212421 -0.38230991969197
 6 -7.83708889528953  4.64244096889689 -1.17273138263826
 6 -8.34288374167417  3.69289621952195 -2.07404634903490
 6 -7.66491538203820  2.37893390219022 -1.78663460996100
 6 -8.27762075297530  6.04139404880488 -1.10471998079808
 6 -9.49708407170717  3.80595099329933 -3.12526715951595
 6 -8.90367182088209  4.20793894009401 -4.38449485348535
 7 -6.20533895289529 -0.11050606830683 -1.21215630763076
 6 -7.15335486508651 -0.01119718831883 -2.14234844554455
 6 -7.48602610981098 -1.32048375197520 -2.74238676127613
 6 -6.57515706450645 -2.12310188198820 -2.11621778747875
 6 -5.83043145854585 -1.42538610371037 -1.19703583398340
 6 -8.48296375417542 -1.58817894389439 -3.73327022322232
 6 -6.09008267536754 -3.56213179707971 -1.97914146924692
 8 -6.38853324882488 -4.54167186558656 -2.68056432153215
 6 -5.04441300340034 -3.56793484608461 -0.94694701450145
 6 -5.29523700110011 -4.59525496659666  0.12432610441044
 8 -5.66385215681568 -4.45851485958596  1.28366472987299
 8 -4.84775447364737 -5.76115731213121 -0.38484162876288
 6 -5.12599016321632 -6.94498635193519  0.39309113891389
 6  2.28215918911891 -5.23137425762576  0.80611456585659
 6  3.34626916191619 -4.18245840674067  1.07214511431143
 6  4.03896328652865 -3.38817168726873  0.17688132313231
 6  3.66108044694469 -3.37142208350835 -1.27905741024102
 6  5.08264469026903 -2.30021506910691  0.74922872167217
 6  6.45477034833483 -2.66581950715072  0.10143161056106
 6  7.59068439203920 -1.75781513701370  0.73650934143414
 6  8.89830065136514 -2.01520635423542 -0.01521930443044
 6  9.41076745844584 -3.44566520692069  0.12045858815882
 6  9.86880745984598 -0.90899113651365  0.49183169866987
 6  11.27567486988699 -0.93493310021002 -0.20623939013901
 6  12.13151083968397  0.26316094359436  0.26686353395340
 6  13.40279273507351  0.44419928982898 -0.67632239543954
 6  14.30859915891589 -0.81068047064706 -0.59697384828483
 6  14.28268420802080  1.71830800240024 -0.16897615241524
 6  15.19417360776077  2.19217724592459 -1.15940093509351
 6  15.84398698309831  3.50410516331633 -0.66302691589159
 6  17.17634288338834  4.00912875447545 -1.34258819401940
 6  17.05454804450445  4.14622951465147 -2.93496572077208
 6  17.92187159325933  5.30846611191119 -0.74022348124812
 1 -2.76593231603160  1.13037731313131  3.66451692009201
 1 -6.43411138993899  5.66345172557256  0.74564355605561
 1 -8.46527693489349  1.17679798269827 -3.28892437123712
 1 -3.58159922472247 -3.28263357875788  1.92351041184118
 1 -1.90587771167117 -1.16420408200820  2.99073034913491
 1 -3.04458423752375 -2.64647780898090  4.41269481348135
 1 -3.41786257895790 -0.85788569296930  4.78296032583258
 1 -4.66631914361436 -1.89978905980598  4.08310226072607
 1 -1.98773408710871 -3.13420293759376 -0.28974959875988
 1 -1.24391222362236 -1.83354247054705  0.28424654625463
 1 -0.76094152765277 -3.35743703930393  2.30819503820382
 1 -1.43574829642964 -4.76145327652765  1.43283508150815
 1 -1.74074418821882  3.62027155155516  3.78692460216022
 1 -2.60863185328533  4.90142734873487  4.40164642234223
 1 -2.83635663066307  3.19591058855886  5.14628963496350
 1 -5.44069713361336  6.61688588298830  2.34986030743074
 1 -9.96753588708871  2.67808846594659 -3.20232348404840
 1 -10.08437923582358  4.57552139623962 -2.64794508520852
 1 -9.61011081088109  4.25717413141314 -5.20592579487949
 1 -8.40339984938494  5.01618136353635 -4.25784573957396
 1 -7.97043689268927  3.69359871867187 -4.74008393319332
 1 -8.29505709530953 -1.17517806070607 -4.74180517881788
 1 -8.42396337933793 -2.59852325742574 -3.86113875087509
 1 -9.58315839533953 -1.45639246264626 -3.53144005070507
 1 -4.05897325472547 -3.87653247984798 -1.22837612451245
 1  2.69886101910191 -6.22468041104110  1.25535149204920
 1  2.10071081448145 -5.47194417051705 -0.30632408200820
 1  3.48754087638764 -4.15934521632163  2.22415742334233
 1  2.69483447014701 -3.80581620272027 -1.46910945194519
 1  3.52844745804580 -2.27965152445245 -1.46915938643864
 1  4.34063623762376 -3.91994572377238 -1.84971389728973
 1  4.71323136403640 -1.34110053405340  0.25971785528553
 1  5.15337386468647 -2.38742037443744  1.87849272957296
 1  6.62182970967097 -3.81923511561156  0.20521840584058
 1  6.39327948834883 -2.51206881588159 -0.95699629512951
 1  7.24628355965597 -0.73641696679668  0.42009925542554
 1  7.65706780968097 -1.87727431053105  1.99128351365137
 1  8.89983409270927 -1.66511478667867 -1.01873521162116
 1  8.68018253695369 -4.11411018241824 -0.17960175257526
 1  10.38740808160816 -3.66084028612861 -0.22787290079008
 1  9.34791385278528 -3.77422851435144  1.20762120482048
 1  9.36816596719672  0.03878960516052  0.33842920672067
 1  9.95788588608861 -0.96288282218222  1.57320686068607
 1  11.61737687898790 -1.90409044094409  0.21940756755676
 1  11.08168425512551 -1.08847175207521 -1.19091042464247
 1  11.60824185768577  1.26714114331433  0.37082752755276
 1  12.51484630793079  0.04196538793879  1.30044832503250
 1  13.04474127482748  0.62271670397040 -1.58019025772577
 1  14.78981832013201 -1.02310052275228  0.31230691069107
 1  13.77169274027403 -1.67778679497950 -0.80555687718772
 1  15.04512550095009 -0.73657685588559 -1.41839873237324
 1  13.55805399959996  2.38557317641764  0.29121733403340
 1  14.68288498879888  1.52689297849785  0.89920713461346
 1  15.96232788858886  1.53277188988899 -1.34537102780278
 1  14.74028961236124  2.40879479227923 -2.20763214291429
 1  15.13880528512851  4.36703208120812 -0.77489948804881
 1  16.06111888198820  3.39168580998100  0.22901280168017
 1  17.83896757815782  3.10864235543554 -1.26232531213121
 1  16.27138785918592  5.06748327722772 -3.11324368416842
 1  17.89933585708571  4.64533404670467 -3.37754235933593
 1  16.71903210341034  3.12040311031103 -3.46560459505951
 1  17.92419846704670  5.14878609610961  0.42062372657266
 1  18.83876139843984  5.26532068426843 -1.16873378777878
 1  17.23083463436344  6.06997650075008 -0.87805186648665
 1 -5.04232953435344 -7.85212464556456 -0.21817535523552
 1 -6.25869029932993 -6.83254034063406  0.80774428192819
 1 -4.36546471507151 -7.04396597219722  1.15773022962296
 8 -7.93956154775478  6.77664416521652 -0.22429021302130
 1 -8.93698199529953  6.47464310921092 -2.17607329012901

