%nproc=4
%Mem=4GB
# td=(NStates=1) iop(3/107=0140000000,3/108=0140000000) iop(3/107=0140000000,3/108=0140000000) CAM-B3LYP/6-31G(d,p) 

TD

0 1
12 -5.72434394099410  1.19418429272927  0.22531113631363
 6 -5.13369375657566 -2.18933739703970 -0.27893476027603
 6 -3.38637742684268  1.14226451125112  2.74992036533653
 6 -6.04771356705671  4.51750501470147  0.59010921972197
 6 -8.17661342844284  1.17010786148615 -2.26539421292129
 7 -4.39374362766277 -0.30122831463146  1.09460079887989
 6 -4.31110463796380 -1.63195689728973  0.67777012661266
 6 -3.25096822132213 -2.35731903470347  1.49141350505051
 6 -2.75152832383238 -1.32814570547055  2.54012056815682
 6 -3.49619704710471 -0.09078170587059  2.05806039123912
 6 -3.47581062046205 -1.74042748414841  3.98730142954295
 6 -2.02741793499350 -2.64347175647565  0.57959326482648
 6 -0.93944558805881 -3.57210479107911  1.35015860386039
 6  0.27403250375038 -3.82854669536954  0.48021621632163
 8  0.48815888018802 -3.36454376797680 -0.65164139833983
 8  1.05132197789779 -4.66330594789479  1.18872347964796
 7 -4.87146796309631  2.58648802570257  1.43945417711771
 6 -3.86199828962896  2.39693711541154  2.29566016931693
 6 -3.61178068176818  3.71920042224222  3.03440399659966
 6 -4.56231678437844  4.60541206950695  2.45841511281128
 6 -5.20995709990999  3.93327142234223  1.41505759805981
 6 -2.58068343144314  3.85329270507051  4.08336252565257
 6 -4.47263379397940  6.07914533503350  2.73382288708871
 8 -3.83723377137714  6.56912480048005  3.64429832973297
 7 -6.98808260816082  2.53757365316532 -0.69218087438744
 6 -6.98461117591759  3.96995661286129 -0.35857754645465
 6 -8.07037222362236  4.53735045984598 -1.15377948744874
 6 -8.65788524182418  3.60357728762876 -1.92476142054205
 6 -7.96672556305631  2.36450245904590 -1.63740968746875
 6 -8.39570256115612  6.00296020542054 -1.19229873867387
 6 -9.62627699099910  3.76463686188619 -3.11440607340734
 6 -9.06437789148915  4.20866901310131 -4.40163656765677
 7 -6.45737415641564 -0.14774979267927 -0.94655974797480
 6 -7.50217974757476 -0.02820888948895 -1.96014022472247
 6 -7.62025953315332 -1.33924562816282 -2.64307683028303
 6 -6.65391494029403 -2.18125769756976 -1.96068223392339
 6 -6.00381879727973 -1.46008957405741 -0.96245237563756
 6 -8.57873333113311 -1.58017814381438 -3.78315521172117
 6 -6.18784245134514 -3.50083566746675 -1.91071462656266
 8 -6.59106350185019 -4.52669036743674 -2.42832909800980
 6 -5.04536309840984 -3.53940199279928 -0.81132345214521
 6 -5.39764724212421 -4.69301474257426  0.25604927672767
 8 -5.95238100970097 -4.50324933303330  1.35603196659666
 8 -5.21757145534554 -5.88111930833083 -0.29741288588859
 6 -5.49514707890789 -6.92411426472647  0.52815464526453
 6  2.38917989118912 -5.02913403360336  0.61899585398540
 6  3.52839737473747 -4.12578273917392  0.87723562336234
 6  4.13311270147015 -3.30123299339934 -0.04439080408041
 6  3.77409174807481 -3.22485742704270 -1.50904040854085
 6  5.23365979177918 -2.37442248984898  0.43945774457446
 6  6.62494736603660 -2.74051697689769 -0.13300183278328
 6  7.61051637523752 -1.85602495799580  0.40902659315932
 6  9.07051787308731 -2.00596543014301 -0.16249403190319
 6  9.64956133783378 -3.35871651205120  0.18112465476548
 6  9.94027460656066 -0.92670290769077  0.44648716421642
 6  11.43432073447345 -0.69546915381538 -0.30091885808581
 6  12.18703639223922  0.44572920042004  0.11092794039404
 6  13.62958541434143  0.50261513141314 -0.54079884308431
 6  14.42374067306731 -0.73942334493449 -0.21154530543054
 6  14.38444438403840  1.83428960056006 -0.07463671847185
 6  15.46743093349335  2.21927995619562 -0.94537953295330
 6  16.20328291269127  3.55647039983998 -0.38264887808781
 6  17.47408265736574  3.89439728132813 -1.10216415161516
 6  17.25170776047605  4.04303919561956 -2.65509773397340
 6  18.09320872697269  5.11633689898990 -0.61229068796880
 1 -2.51351707450745  0.98947322272227  3.36588705710571
 1 -6.35117309610961  5.50823620402040  0.68735772747275
 1 -8.84555496269627  1.14709501240124 -3.21656713551355
 1 -3.55195626042604 -3.24634995039504  1.81867992879288
 1 -1.71235835973597 -1.35614327592759  2.69826110221022
 1 -3.42087186628663 -2.78749191039104  4.37783132713271
 1 -3.18591938463846 -0.97602750715071  4.75656768656866
 1 -4.54117662936294 -1.54052313321332  3.79882383288329
 1 -2.31333664736474 -3.26293581088109 -0.41113173697370
 1 -1.64328216061606 -1.86260537683768  0.18248637023702
 1 -0.56541197469747 -3.04459575517552  2.30733495219522
 1 -1.23484820642064 -4.61600873207321  1.54339613761376
 1 -1.66596671047105  3.65045456985699  3.38034394409441
 1 -2.72012300240024  4.94747195319532  4.64968122582258
 1 -2.55791878687869  3.05949694719472  4.90947595359536
 1 -5.27378044194419  6.66869106350635  2.17943326472647
 1 -10.14191332483248  2.93530418751875 -3.48354160586059
 1 -10.31717251515152  4.78489233333333 -2.78608889958996
 1 -9.91415121492149  4.27590600460046 -5.05812101440144
 1 -8.58689819921992  5.26059580498050 -4.29172912791279
 1 -8.28655850485048  3.52564192299230 -4.76043596839684
 1 -8.43542113171317 -0.81208175107511 -4.59999099739974
 1 -8.35309629262926 -2.64099750485049 -4.06740937793779
 1 -9.69658973847385 -1.33206002940294 -3.44009091579158
 1 -4.24990234763476 -4.00665549214922 -1.33537682458246
 1  2.73978511151115 -6.05762370537054  0.93153911081108
 1  2.40189093249325 -5.18812578867887 -0.49116256585659
 1  4.11781390369037 -4.06296557835784  1.99238424602460
 1  2.73658864556456 -3.56295191629163 -1.88379092009201
 1  4.10480509380938 -2.30445400470047 -1.89044151465147
 1  4.37201937593759 -3.94034776397640 -2.10127905380538
 1  5.03169321022102 -1.37349377337734  0.13803568706871
 1  5.34157268456846 -2.51795342774277  1.51922680298030
 1  6.89988751545155 -3.86458965106511  0.12011989598960
 1  6.44474463486349 -2.82274988398840 -1.14226482198220
 1  7.33710264156416 -0.73670699579958 -0.06362911741174
 1  7.81052315521552 -1.90174675777578  1.51562594789479
 1  8.97567167646765 -1.91861013621362 -1.23657699579958
 1  9.10010452915292 -4.06807557895790 -0.58662245464546
 1  10.75361470227023 -3.68742294439444 -0.03376348984899
 1  9.31956101750175 -3.64482557405741  1.32989343204320
 1  9.43822297289729  0.06407213341334  0.49113447724773
 1  10.10401049854985 -1.30426696059606  1.54639417941794
 1  11.98084322562256 -1.70806083798380 -0.13781815501550
 1  11.39201528822882 -0.83736664156416 -1.46872820642064
 1  11.64021505500550  1.27337176637664 -0.13943349854985
 1  12.39909473277328  0.36480767216722  1.30471875207521
 1  13.34587138783878  0.47243167546755 -1.53153539223922
 1  14.63539287758776 -0.75214342704270  0.89189486948695
 1  13.80224579557956 -1.64017303360336 -0.37460378187819
 1  15.35516650505051 -0.88302150035003 -0.79620651315132
 1  13.60885908010801  2.61030564966497  0.09096730903090
 1  14.69159585988599  1.55083537273727  1.00368758265827
 1  16.40641229702970  1.43815242794279 -1.05441193189319
 1  15.22145772917292  2.45192910571057 -1.90572195189519
 1  15.32613401800180  4.38264364236424 -0.35604760286029
 1  16.37756052615262  3.43157979937994  0.69024892529253
 1  18.08969265066507  3.11197268846885 -0.95721480108011
 1  16.36299702010201  4.66177270617062 -3.02829518931893
 1  18.16821274477448  4.60259977327733 -3.07401200630063
 1  17.11782198239824  2.97489855985599 -3.13826186078608
 1  18.59041508870887  5.09320053755376  0.37260892509251
 1  18.94750227252725  5.51628578077808 -1.20640755515552
 1  17.45120667156716  5.91269077217722 -0.72246630793079
 1 -5.48580388178818 -7.78075750885089 -0.33771730943094
 1 -6.52345677597760 -7.09298638523852  1.14030753825383
 1 -4.72633080168017 -7.30208178377838  1.34521897849785
 8 -7.66032362396240  6.74515101590159 -0.63203098709871
 1 -9.47159545664566  6.30565621052105 -1.78251393419342

