%nproc=4
%Mem=4GB
# td=(NStates=1) iop(3/107=0140000000,3/108=0140000000) iop(3/107=0140000000,3/108=0140000000) CAM-B3LYP/6-31G(d,p) 

TD

0 1
12 -5.63242474907491  1.23209808410841  0.18570717591759
 6 -4.92392277947795 -2.19227769106911 -0.39750661746175
 6 -3.41280006910691  1.12856314111411  2.85595096839684
 6 -6.18388718441844  4.52096536073607  0.69587979677968
 6 -7.97458322542254  1.23771462216222 -2.33333100660066
 7 -4.40568482178218 -0.31777996979698  1.09762110091009
 6 -4.24777830533053 -1.64738844044404  0.71235358495850
 6 -3.19968309280928 -2.35120842364236  1.55672003570357
 6 -2.96062923392339 -1.35145803670367  2.69154571067107
 6 -3.60595802320232 -0.05007763546355  2.19772435763576
 6 -3.53148618801880 -1.88001144254425  4.04038673807381
 6 -1.99176436963696 -2.55978338763876  0.55224052955296
 6 -0.95514715821582 -3.51167874847485  1.39044263226323
 6  0.26223132363236 -3.98967280798080  0.66484467916792
 8  0.49393945824582 -3.53727104070407 -0.43643987818782
 8  1.02867971367137 -4.79962958025803  1.31323593089309
 7 -4.80595141144114  2.59369874677468  1.36447667936794
 6 -3.93687577737774  2.38909633133313  2.48408901220122
 6 -3.70608011171117  3.70055855805581  3.15412596879688
 6 -4.54809536223622  4.59399092739274  2.52549182048205
 6 -5.17755385958596  3.86086418161816  1.46267235953595
 6 -2.80050541364136  3.83602097789779  4.21760594999500
 6 -4.60525705630563  6.03859127962796  2.83312281708171
 8 -4.00784083208321  6.55569345734573  3.84114801470147
 7 -6.79168296819682  2.64821471727173 -0.79907156345635
 6 -6.81636435123512  3.92129174637464 -0.37581927062706
 6 -7.85799098549855  4.62815954075408 -1.13348745824582
 6 -8.38952840614061  3.61482841274127 -1.98460740514051
 6 -7.74428331883188  2.48253426222622 -1.77958390489049
 6 -8.16780977187719  6.03280318971897 -1.13223273207321
 6 -9.35628999229923  3.81816221442144 -3.12893752655266
 6 -8.59745119881988  4.09959810601060 -4.51264766876688
 7 -6.30162858185819 -0.12671768946895 -1.20358545054505
 6 -7.28178770837084  0.05873980538054 -2.12205641634163
 6 -7.57646515371537 -1.27756946054605 -2.70486300890089
 6 -6.68608815761576 -2.18540811261126 -2.05169133483348
 6 -5.89290770617062 -1.34924848994899 -1.08753488388839
 6 -8.51039649744974 -1.57038716471647 -3.74129102530253
 6 -6.27993166026603 -3.52718830273027 -1.98761231633163
 8 -6.81118551405141 -4.48969666806681 -2.44452071717172
 6 -4.99578814091409 -3.49234728732873 -1.01405372517252
 6 -5.24498197559756 -4.63519896099610 -0.01382771097110
 8 -5.70517628922892 -4.52163117121712  1.10464682808281
 8 -4.97603730193019 -5.89609080548055 -0.50132327692769
 6 -5.20172773697370 -6.99735158845885  0.44773660346035
 6  2.40036100930093 -5.16133725392539  0.66046000040004
 6  3.37795233023302 -4.17696785768577  1.05906380618062
 6  4.04147353755376 -3.35255812591259  0.12667630263026
 6  3.68032237113711 -3.22890783208321 -1.25697520202020
 6  5.12389881568157 -2.55992103970397  0.71319511831183
 6  6.57975284658466 -2.84448737393739  0.07995946334633
 6  7.56042136573657 -1.80566992249225  0.62065775627563
 6  8.97486830813081 -1.82565739933993 -0.06177395989599
 6  9.51756813851385 -3.34472511291129  0.02867941024102
 6  9.84434501360136 -0.93441367876788  0.50866338183818
 6  11.22381968436844 -0.71250085698570 -0.22219098529853
 6  11.93446113471347  0.33799842734273  0.18371521912191
 6  13.34258671447145  0.53710858075808 -0.48847361056106
 6  14.33847214621462 -0.72634203680368 -0.15948009890989
 6  14.06158209780978  1.86764293589359 -0.15493474827483
 6  15.40080427082708  2.21485951415141 -0.90847584258426
 6  15.94460704510451  3.59765451825183 -0.65356596979698
 6  17.23189843894389  3.90913875547555 -1.45261919711971
 6  17.07852044174417  4.02661755345535 -2.95230745494549
 6  17.99543894999500  5.22175744104410 -0.99595905480548
 1 -2.71774749754975  1.22292656805680  3.73267373577358
 1 -6.16539451825183  5.59206458685869  0.84261325302530
 1 -8.55579598679868  1.19531983488349 -3.17222270107011
 1 -3.63730479527953 -3.33200851625163  1.82143020382038
 1 -1.84787191109111 -1.37616527812781  2.88827010311031
 1 -3.16568634773477 -2.91779494069407  4.21374491849185
 1 -3.67999879257926 -1.04057396179618  4.70217224702470
 1 -4.57065957765777 -2.21363044394439  4.02423637413741
 1 -2.15726103980398 -3.11317083438344 -0.33537416121612
 1 -1.41746957935794 -1.59219833613361  0.53531165276528
 1 -0.48645407890789 -3.38828012361236  2.49458367706771
 1 -1.38082280388039 -4.54736186738674  1.70977277527753
 1 -1.82568268206821  3.34186371077108  4.02921883158316
 1 -2.49013000310031  4.90519772577258  4.65516177387739
 1 -3.36103909890989  3.25594659215922  4.98301330733073
 1 -5.33367643154315  6.68548274267427  2.22904822622262
 1 -10.08766790029003  2.97225788288829 -3.32632588428843
 1 -9.82266306420642  4.67190103420342 -2.99144943564357
 1 -9.09950975077508  4.06328474247425 -5.49653485578558
 1 -8.09012852225223  5.13507325272527 -4.35924587958796
 1 -8.01694154315432  3.42619197799780 -4.69374929972997
 1 -8.38148573817382 -0.80859140204020 -4.46587758605861
 1 -8.71100208320832 -2.62287569266927 -4.22524516151615
 1 -9.31154123362336 -1.40968779217922 -3.48576548324833
 1 -4.10833819121912 -3.51377620422042 -1.44464775167517
 1  2.60434156715672 -5.93567151015101  1.24291024792479
 1  2.29027977137714 -5.25946292239224 -0.34312776237624
 1  3.70525264756476 -4.12982226402640  2.16248125572557
 1  2.69981496819682 -3.29710533163316 -1.55196773777378
 1  3.98854346764677 -2.30347390669067 -1.57819028952895
 1  4.18255042904290 -4.13816754595460 -1.70658958485849
 1  4.83978401930193 -1.47085350935094  0.45936782028203
 1  5.34467299459946 -2.33351498389839  1.66856173647365
 1  6.66448397509751 -3.81185437753775  0.29918780278028
 1  6.34180434083408 -2.78431604060406 -0.91260185568557
 1  7.12617154845485 -0.81103442854285  0.52650989648965
 1  7.94905700860086 -1.97118370147015  1.72637702300230
 1  8.70901501080108 -1.68250652585258 -1.20722406050605
 1  8.96118063676368 -4.23190196159616 -0.43305709810981
 1  10.44334367516752 -3.46076027812781 -0.50460057355736
 1  9.72071113251325 -4.00270136163616  0.97543798649865
 1  9.21385053565357  0.12447817401740  0.53604896869687
 1  10.04121421892189 -1.22394892879288  1.60934047404740
 1  11.66152129342934 -1.74268430033003 -0.17970234343434
 1  11.06241232793279 -0.66056896179618 -1.29662099569957
 1  11.45367640114011  1.41584601380138  0.14574501930193
 1  12.32285710901090  0.30147133853385  1.37191547174718
 1  13.43052985368537  0.31616604890489 -1.67109934863486
 1  14.61403074137414 -0.64484269696970  1.03035871587159
 1  13.63277884888489 -1.71787080338034 -0.32937925942594
 1  15.19055004340434 -0.49745294349435 -0.66257314981498
 1  13.08625681988199  2.59532415151515 -0.29885167286729
 1  14.24656135643564  1.93603389258926  1.01816903080308
 1  16.13272492829283  1.40295890859086 -0.65445193589359
 1  15.39071465486549  2.18010192299230 -2.03755513521352
 1  15.27293869846985  4.48021339933993 -1.14214621272127
 1  16.08523129322932  3.59757639903990  0.54574447484748
 1  17.87179086048605  2.96419791099110 -1.27403648324832
 1  16.40679139953995  4.86155268416842 -3.41171353115312
 1  18.05498142164216  4.37107662096210 -3.45685029012901
 1  16.77244744494450  2.98988005800580 -3.50742877747775
 1  17.97580362756275  5.30141135863586  0.11415307950795
 1  19.06790431273127  5.32691684388439 -1.41595851025103
 1  17.42179373027303  6.16954645774577 -1.32743680498050
 1 -4.78007330873087 -7.87698713181318 -0.09361289898990
 1 -6.32427685798580 -7.16197328392839  0.69525303280328
 1 -4.56760492909291 -6.87003857945795  1.37507196379638
 8 -7.67649524112411  6.89344584538454 -0.41614939893989
 1 -8.95721401850185  6.22651829672967 -1.79464514731473

