%nproc=4
%Mem=4GB
# td=(NStates=1) iop(3/107=0140000000,3/108=0140000000) iop(3/107=0140000000,3/108=0140000000) CAM-B3LYP/6-31G(d,p) 

TD

0 1
12 -5.64761626822682  1.22739761406141  0.17420602580258
 6 -5.10511089828983 -2.13913237653765 -0.35488235503550
 6 -3.41901069016902  1.10016030083008  2.79536490979098
 6 -6.37012580828083  4.50467373157316  0.81706191499150
 6 -7.90042580968097  1.19733058375838 -2.46440411391139
 7 -4.47729198249825 -0.28806699849985  1.03263460226023
 6 -4.25592912041204 -1.55633933553355  0.61629397899790
 6 -3.24518764326433 -2.34144744754475  1.49542390609061
 6 -2.97821099209921 -1.32656554745475  2.57385394149415
 6 -3.63172059945995  0.01779915221522  2.03399798499850
 6 -3.46198923832383 -1.89161260266027  3.94617731713171
 6 -1.98472366556656 -2.79600701000100  0.70579588508851
 6 -1.01835347884788 -3.63491107170717  1.49323291129113
 6  0.20193529402940 -3.92202604330433  0.66685488018802
 8  0.56656672097210 -3.58085539913991 -0.45515174937494
 8  1.02727957365737 -4.67495711301130  1.31426603390339
 7 -4.98066888318832  2.62505188208821  1.53141337303730
 6 -4.01112320212021  2.42801022272227  2.48670927422742
 6 -3.62112161586159  3.64806330853085  3.17564812101210
 6 -4.58776932963296  4.61477300560056  2.60056932823282
 6 -5.29447555175518  3.94597269246925  1.53462955525553
 6 -2.74370973407341  3.85352272807281  4.33897808720872
 6 -4.70122665326533  5.97310473097310  2.97206671147115
 8 -4.06998704670467  6.59417730573057  3.80282418231823
 7 -6.88679247914791  2.63063295909591 -0.63861551785179
 6 -7.02253496829683  3.87959757695770 -0.23082477117712
 6 -7.91449663606361  4.55488221302130 -1.19237334683468
 6 -8.39830928422842  3.65885281518152 -2.03866281068107
 6 -7.74769365986599  2.48345435423542 -1.76376232273227
 6 -8.29835282618262  5.96531644104410 -1.14697420622062
 6 -9.33621798509851  3.84690508870887 -3.19153378617862
 6 -8.64551600530053  4.05924407060706 -4.54057046104611
 7 -6.30808922792279 -0.09297431513151 -1.15987107910791
 6 -7.18793832343234  0.05299923132313 -2.23035724642464
 6 -7.43554106130613 -1.26693839743974 -2.88390091269127
 6 -6.68086763556356 -2.13440301210121 -2.10901706740674
 6 -5.92981139653965 -1.39497306240624 -1.13209934033403
 6 -8.33259871767177 -1.57095722172217 -3.99285618181818
 6 -6.22551621872187 -3.55151073497350 -2.01988554365437
 8 -6.66617101260126 -4.40185788418842 -2.63404967006701
 6 -5.03471203330333 -3.58184623722372 -0.83588590839084
 6 -5.40302778017802 -4.58876431753175  0.16918058985899
 8 -5.82054782638264 -4.47506651475148  1.35220158355836
 8 -5.15084478267827 -5.82681387778778 -0.35255840044004
 6 -5.45845340954095 -6.97049890319032  0.45032686248625
 6  2.28812978617862 -5.06288740894089  0.77198115251525
 6  3.44104863986399 -4.12900306120612  1.18856675647565
 6  4.11047043724372 -3.35627849794980  0.27438107310731
 6  3.72080641954195 -3.25175011631163 -1.22273177767777
 6  5.18483490929093 -2.35019006660666  0.70046384518452
 6  6.57125199649965 -2.75463838903890  0.05955742314231
 6  7.71001632523252 -1.75963531903190  0.53430912141214
 6  9.12660348164816 -2.02633746734673 -0.07610539303930
 6  9.69009539123912 -3.36565720612061  0.23034957725773
 6  9.97207778687869 -0.92019225662566  0.38171068656866
 6  11.37769507190719 -0.82995260216022 -0.37386615281528
 6  12.19801749034903  0.34437906540654  0.07441428902890
 6  13.52487494329433  0.49165403530353 -0.69228399159916
 6  14.43766206520652 -0.78234763736374 -0.33606775767577
 6  14.22615855545554  1.83216938853885 -0.34921417621762
 6  15.45784997539754  2.21102913111311 -1.19597459245925
 6  16.05611819621962  3.53373812661266 -0.75909652285229
 6  17.36946219531953  3.89264710631063 -1.33592752795280
 6  17.33008559825982  4.08528342004200 -2.87804002820282
 6  17.86443584968497  5.22411767706771 -0.60715017391739
 1 -2.89405512831283  0.95957023242324  3.88401887028703
 1 -6.79201718051805  5.45831121152115  1.19984897659766
 1 -8.62496290349035  1.22838314121412 -3.21600707950795
 1 -3.57773883868387 -3.20818613401340  1.80174823562356
 1 -1.92046917081708 -1.23900156175618  2.48558983508351
 1 -2.85851563066307 -2.73617677887789  4.16094963896390
 1 -3.21498229092909 -1.15967587198720  4.80380241004100
 1 -4.55262777447745 -2.10344942584258  3.76243019351935
 1 -2.18030334403440 -3.28675819311931 -0.09128975277528
 1 -1.59798763116312 -1.83650276657666  0.10674879647965
 1 -0.91823725722572 -3.28320961656166  2.65296951565157
 1 -1.51981670327033 -4.60016714791479  1.76965876387639
 1 -1.61817193099310  3.26812633703370  4.11350726042604
 1 -2.59511050115011  4.90488769476948  4.58297455515552
 1 -3.36558955395540  3.47881887938794  5.25611061706171
 1 -5.25992905680568  6.64121831623162  2.26232155355535
 1 -10.02049118261826  3.02379303640364 -3.35262851455145
 1 -9.94944574247425  4.61965580968097 -3.05320561126113
 1 -9.42627242704270  4.16045445944594 -5.48072327462746
 1 -7.86063557295730  5.04745449084909 -4.79602955795580
 1 -7.85313516251625  3.21610096889689 -4.68112803760376
 1 -7.93354094369437 -0.98535907880788 -4.89976097439744
 1 -8.23316429942994 -2.74606801190119 -4.40828346534653
 1 -9.41289136863687 -1.42136896029603 -3.76426333303330
 1 -4.17435479287929 -3.98026285288529 -1.28254154105411
 1  2.40593172617262 -6.05351329432943  1.20972692959296
 1  2.00652139553955 -5.11928890499050 -0.32055550515052
 1  3.90895301760176 -4.21605088688869  2.08107311491149
 1  2.69610459715972 -3.50284590569057 -1.32458499949995
 1  3.88208282158216 -2.36179973927393 -1.67756022652265
 1  4.18312048604860 -3.84860859005901 -1.78290721662166
 1  4.94570461136114 -1.34457088108811  0.28897078057806
 1  5.38027655495550 -2.10594222662266  1.85283016331633
 1  6.63024055075508 -3.84263745584558  0.38048593259326
 1  6.53177333773377 -2.94566217521752 -1.19798039353935
 1  7.29640857215722 -0.76416974207421  0.16379362486249
 1  7.75401750465046 -1.75212179527953  1.66038042334233
 1  8.99219332863286 -1.76487476267627 -1.12490582868287
 1  8.87984250295029 -4.16442521392139 -0.03120691309131
 1  10.52405174597460 -3.56970117221722 -0.46558667216722
 1  9.55403446484648 -3.52638372987299  1.28905934863486
 1  9.53323247384739  0.13246897309731  0.20496586038604
 1  10.21422151965196 -0.98470500440044  1.43601314131413
 1  11.94749989128913 -1.78980901280128 -0.28053242644264
 1  11.37657374407441 -0.83211611651165 -1.39972130573057
 1  11.62310334383438  1.23932836203620 -0.00334989018902
 1  12.32041686498650  0.05535672707271  1.10326860706071
 1  13.19635643634363  0.49322375467547 -1.74023626232623
 1  14.43042238053805 -0.69587780048005  0.74572025202520
 1  13.90121569256926 -1.67303631993199 -0.63295961746175
 1  15.30661164956496 -0.65008820702070 -0.86216310881088
 1  13.51873006720672  2.46370098919892 -0.54934672237224
 1  14.34143084338434  1.84642493169317  0.73023023692369
 1  16.06007766356636  1.30348896159616 -1.01963845454545
 1  15.56146172957296  2.17515142794279 -2.27027840754075
 1  15.28899030363036  4.36795217321732 -0.63177517561756
 1  16.01493426352636  3.39248588998900  0.42306220662066
 1  18.04327800920092  3.21176266746675 -1.14713379297930
 1  16.53897461786179  4.87361389028903 -3.00217257705771
 1  18.19871579507951  4.32901241454146 -3.45000960606061
 1  16.87392759295930  2.98138920892089 -3.14446248084809
 1  17.89060510771077  5.07662888038804  0.41781344554455
 1  18.95736325862586  5.35017917011701 -0.98409532393239
 1  17.16249780068007  6.01495099819982 -0.91638569986999
 1 -5.23198850025003 -7.70115954905491 -0.29803334103410
 1 -6.54140857115712 -7.13645073167317  0.75260876837684
 1 -4.82148031663166 -6.91007258285829  1.42874733133313
 8 -7.95287287888789  6.82137863866387 -0.36523430743074
 1 -9.01895019211921  6.34474011891189 -1.79368505130513

