%nproc=4
%Mem=2GB
# td=(NStates=1) iop(3/107=0140000000,3/108=0140000000) iop(3/107=0140000000,3/108=0140000000) CAM-B3LYP/6-31G(d,p) 

TD

0 1
12 -6.90308288038804  0.57111625572557  0.16427404690469
 6 -4.47233433993399 -2.05120354215422  0.29688996599660
 6 -4.43206502190219  2.79361099419942  1.10087296889689
 6 -9.01215392009201  3.06617064116412 -0.39268877057706
 6 -9.26679477707771 -1.78433146274627 -1.00842090079008
 7 -4.78936400830083  0.47819721742174  0.58416744884488
 6 -4.00595786138614 -0.77404711151115  0.63323387878788
 6 -2.55577899649965 -0.39857161636164  1.08165022732273
 6 -2.56514648044804  1.17165731453145  1.51163332583258
 6 -3.97526378927893  1.51363144834483  1.02659743444344
 6 -2.39597588328833  1.21720351625163  2.85149971277128
 6 -1.60376912531253 -0.86873943734373  0.00886221252125
 6 -0.16220433873387 -1.04468617521752  0.62952202570257
 6  0.82658373757376 -1.19279651655165 -0.60370854465447
 8  0.60463053115312 -0.74730734323432 -1.66812780298030
 8  1.96421670827083 -1.84056435503550 -0.12536745924592
 7 -6.61472321452145  2.50087045704570  0.42773652155216
 6 -5.70110067096710  3.30856950015001  0.71898819501950
 6 -6.09170338553855  4.70931061586159  0.83315818441844
 6 -7.31035174857486  4.81001709220922  0.43432001530153
 6 -7.62601430533053  3.43448225662566  0.05433026442644
 6 -5.24126904720472  5.94643207370737  1.23157082508251
 6 -7.88252981428143  6.09930685078508  0.13963348704871
 8 -7.69793370957096  7.18748036463646  0.49509736653665
 7 -8.74176773027303  0.71042190139014 -0.39772242134213
 6 -9.47683135553555  1.73583831913191 -0.54973602590259
 6 -10.84376100640064  1.39874974607461 -0.94363014421442
 6 -10.89523388088809  0.06632753715372 -1.12033288878888
 6 -9.51408307160716 -0.37060522372237 -0.98463053975398
 6 -11.93422019731973  2.31078727182718 -1.23096774757476
 6 -12.18370149064906 -0.77330089238924 -1.48966710041004
 6 -12.43495035713571 -0.86631879707971 -3.06263905860586
 7 -6.91315779867987 -1.37455001630163 -0.16880952545255
 6 -7.95541820342034 -2.24640463716372 -0.61049424742474
 6 -7.51208879397940 -3.60551787418742 -0.59516052615262
 6 -6.18421404260426 -3.56212537343734 -0.15486374697470
 6 -5.76378266696670 -2.12114092859286 -0.02015583128313
 6 -8.47181570507051 -4.76509388718872 -0.89742255815582
 6 -5.00444664916492 -4.39924572267227  0.09031705740574
 8 -4.79510125882588 -5.60006054435444  0.00060056665667
 6 -3.82057578297830 -3.39201976117612  0.28992363956396
 6 -3.21941545244524 -3.59674585008501  1.82044175717572
 8 -3.73810905100510 -3.79777651245125  2.84459312911291
 8 -1.82995467036704 -3.59037534283428  1.72132207140714
 6 -0.95000352245225 -4.06200129022902  2.97912233743374
 6  3.08251014381438 -2.14212938983898 -0.84773601770177
 6  4.12761652905291 -1.06516351745175 -0.62279781208121
 6  5.14647540294029 -0.80942781418142 -1.40539674127413
 6  5.38652263606361 -1.58140127482748 -2.65688267046705
 6  6.12688651325133  0.36924927202720 -1.07906446494649
 6  7.35728442244224 -0.46680246234623 -0.41413815111511
 6  8.53928648894889  0.54163979857986 -0.24470295079508
 6  9.77915100450045 -0.12269919021902  0.24538623292329
 6  9.48632614891489 -0.84292310701070  1.41397576637664
 6  11.05393772377238  0.71037589178918  0.16780161856186
 6  12.25926119661966 -0.18604729752975  0.26828513971397
 6  13.47250879347935  0.71730900560056  0.41470436883688
 6  14.94669100430043  0.17280055815582  0.40900556265627
 6  15.26119110721072 -0.63075535603560  1.52402232623262
 6  16.07676730513051  1.17705260726073  0.27969117441744
 6  17.38237771587159  0.52488771317132 -0.14302117601760
 6  18.37831737913791  1.40062725392539 -0.52156230303030
 6  19.79580178127813  0.95467396219622 -0.91003108680868
 6  19.56474627592759  0.41161659195920 -2.24972076327633
 6  20.93951112001200  1.99158057605761 -0.75391048694869
 1 -3.69042968126813  3.56082733373337  1.47225662736273
 1 -9.86701068356836  3.92613169826983 -0.29140277417742
 1 -10.22511500310031 -2.49425982528253 -1.07418024392439
 1 -2.32470498729873 -0.75381299909991  2.27507755605561
 1 -1.73716305490549  1.70702117831783  1.02884933833383
 1 -1.39552093579358  1.04344265866587  3.31620233133313
 1 -2.68711688558856  2.06645522192219  3.44429054685469
 1 -3.27201953445345  0.18566645194520  3.32971884098410
 1 -2.02113113341334 -1.76673794679468 -0.65472325912591
 1 -1.60622579157916  0.19913844094409 -0.73604339513951
 1  0.31958995729573 -0.03084451775177  1.29285515071507
 1 -0.53405712551255 -1.87521385518552  1.53617384948495
 1 -4.43397792819282  6.32113994189419  0.71523648134813
 1 -5.83304358495850  6.80814349024902  1.60994790089009
 1 -4.84503553175318  5.36833579457946  2.13123089538954
 1 -8.95267828192819  5.79371448064806 -0.45294166996700
 1 -12.24083363696370 -1.83756462396240 -0.91478590579058
 1 -13.05873208820882 -0.36471007120712 -0.89356699309931
 1 -13.33097092019202 -1.46774889028903 -3.40043716081608
 1 -12.61488845264526  0.49894731623162 -3.48325049454946
 1 -11.67889471387139 -1.50003332033203 -3.74341094849485
 1 -8.70047923122312 -4.63712026762676 -2.03435566356635
 1 -7.87210242484248 -5.67521753435344 -0.38454810671067
 1 -9.33025030503050 -4.88700066126613 -0.27610300080008
 1 -2.79020860226023 -3.56114983988399 -0.43908221502150
 1  3.28359997539754 -3.10854812861286 -0.75719143624362
 1  2.83243753255325 -2.10424633963396 -1.89993022832283
 1  3.86054338203820 -0.85534828322832  0.56571017261726
 1  4.64177723472347 -1.55217869036904 -3.42814292929293
 1  6.52593617201720 -1.27879655505550 -3.41354257815782
 1  5.22797662506251 -2.52525513981398 -2.36884106790679
 1  6.26463688558856  0.69411474887489 -2.20328294549455
 1  5.78858396779678  0.99244479227923 -0.23193745714571
 1  7.11996317521752 -0.86925512261226  0.82914463606361
 1  7.70211560996100 -1.53215200550055 -1.16334581048105
 1  8.64677680908091  0.99427002180218 -1.12454523982398
 1  8.13995249334934  1.26226141434144  0.51755746414641
 1  10.23204565166517 -0.90938838253825 -0.49341649924992
 1  8.61293353765377 -1.53306212191219  1.67640600140014
 1  10.37464353375337 -1.45581946314632  1.41284317571757
 1  9.21073428502850 -0.15227645004500  2.21316262136214
 1  10.98332196999700  1.15296805670567 -0.92352952455246
 1  10.56210595719572  1.53604247984798  0.98373225352535
 1  12.10957850005000 -1.00990342984298  1.17807149044905
 1  12.72687484148415 -0.92860108070807 -0.71615461296130
 1  13.28990386038604  1.69779932493249 -0.49094799939994
 1  13.30703274807481  1.37308155945595  1.37934372377238
 1  14.85188661446145 -0.29650716671667 -0.16018420962096
 1  15.35056495639564  0.03204359985999  2.37431020402040
 1  14.59457673117312 -1.29262693459346  1.46683418151815
 1  16.15589262236223 -1.16603018611861  1.56796327402740
 1  15.85534666956696  1.69743973737374 -0.61607158185819
 1  16.29256328892889  1.87668720422042  1.09330765396540
 1  17.78311962706271 -0.08187501690169  0.90824101080108
 1  17.14395191939194 -0.35037686848685 -0.74084546194619
 1  17.86504151125113  1.63903045084508 -1.29513250155016
 1  18.58509850595060  2.26954086098610  0.05425209570957
 1  19.99522208340834  0.16148899509951 -0.31367801700170
 1  19.12082040004000  1.00413546314631 -3.00788291349135
 1  20.81530582058206 -0.68099990179018 -2.53837797119712
 1  18.72833556055606 -0.37010472887289 -1.91316939163916
 1  20.59204598319832  2.46718629772977  0.13098385198520
 1  21.92105984628463  1.48306488918892 -0.50876359135914
 1  21.00388704160416  2.26371385858586 -1.68261305760576
 1  0.21454582948295 -4.27104985438544  2.81936028402840
 1 -1.29363904490449 -4.88425569926993  2.99466010261026
 1 -0.74434844814481 -3.05566404350435  3.58016216941694
 8 -11.76441481578158  3.48254305350535 -1.09184099779978
 1 -12.66440695219522  1.98463970407041 -1.38238884388439

