%nproc=4
%Mem=2GB
# td=(NStates=1) iop(3/107=0140000000,3/108=0140000000) iop(3/107=0140000000,3/108=0140000000) CAM-B3LYP/6-31G(d,p) 

TD

0 1
12 -6.75661823392339  0.53035217931793 -0.03762614311431
 6 -4.45138224472447 -1.97474589638964  0.48258853585359
 6 -4.17343915931593  2.79833146624662  0.88567144874487
 6 -9.06155886058606  3.12066609070907 -0.18398790049005
 6 -9.27199529712971 -1.83302633223322 -0.69792985168517
 7 -4.76831190309031  0.35454485218522  0.55981501360136
 6 -3.95880314591459 -0.75311501830183  0.68433898929893
 6 -2.48918233683368 -0.58830058925893  0.99239130143014
 6 -2.46224619041904  1.00291043984398  1.26537870037004
 6 -3.90896715961596  1.51149123432343  0.95030980568057
 6 -2.22301858755876  1.30427222312231  2.68370293309331
 6 -1.47553630203020 -0.86286885028503 -0.17502617631763
 6 -0.09628774707471 -1.10127183378338  0.52661173467347
 6  0.77955903510351 -1.28690592749275 -0.81408958275828
 8  0.77678774687469 -0.79189180168017 -1.85272626282628
 8  1.86964725132513 -2.16839713831383 -0.39397431993199
 7 -6.75143688588859  2.58797916791679  0.10780452835284
 6 -5.38463902480248  3.30148879207921  0.73292958915892
 6 -5.82289650485049  4.80276996179618  0.67959282788279
 6 -7.24063477687769  4.89317540804080  0.45681226452645
 6 -7.73355505940594  3.45014382278228  0.10804563596360
 6 -4.91701662196220  5.95080251075107  1.08650631863186
 6 -7.85055661696170  6.13376029612961 -0.02780325662566
 8 -7.54512842904290  7.24752636923692  0.41458931573157
 7 -8.70770432393239  0.67514837403740 -0.50468311741174
 6 -9.44187786018602  1.79073380868087 -0.51290234253425
 6 -10.85035166546655  1.53805367646765 -0.72989877107711
 6 -10.91219557705771  0.12432333673367 -0.92390324582458
 6 -9.53810547384738 -0.46629479267927 -0.81175325202520
 6 -11.90950772607261  2.37322351545155 -0.78112276307631
 6 -12.11097421792179 -0.53218678097810 -1.18385651935194
 6 -12.29075593769377 -0.38721088628863 -2.73758655335534
 7 -6.90064654755476 -1.54321688298830  0.11907926342634
 6 -7.99348200980098 -2.26896689338934 -0.39961315931593
 6 -7.40722830793079 -3.64002132453245 -0.40152116221622
 6 -6.11824744594459 -3.71887104800480 -0.15921418201820
 6 -5.91294758345835 -2.25467428192819  0.12908909320932
 6 -8.35006352985299 -4.80836821462146 -0.83249606550655
 6 -4.96566277077708 -4.45774157225723  0.04994302000200
 8 -4.71016276497650 -5.59224976327633 -0.15923541694169
 6 -3.75513923932393 -3.39808036723672  0.65608025522552
 6 -3.39834334523452 -3.68479465496550  1.92585229822982
 8 -3.84549979007901 -4.04336107090709  2.93106177597760
 8 -1.94765644054405 -3.46867317261726  1.79783972317232
 6 -1.40851937403740 -3.87219230933093  3.06762118731873
 6  3.05246713951395 -2.42632780968097 -1.40437168126813
 6  4.05827959535954 -1.44449145024502 -1.13078861116112
 6  5.16059681508151 -1.12165903730373 -1.94332053365336
 6  5.44205818961896 -1.78751188588859 -3.34717169936994
 6  6.10875470007001 -0.13681133403340 -1.50849740824082
 6  7.47473616761676 -0.64526030813081 -0.96389312661266
 6  8.43933649394939  0.37270290489049 -0.64088256875688
 6  9.80520360976098 -0.31540846114611  0.02690438473847
 6  9.38919643594359 -0.97463627832783  1.61250561936194
 6  10.91921425142514  0.66588144234423  0.30960579897990
 6  12.16835210571057  0.09429073627363  0.37045535673567
 6  13.26096763936394  1.20224749944995  0.19051194959496
 6  14.68745508070807  0.43493677177718  0.62249691179118
 6  14.72067705580558  0.18270599009901  2.11603152715272
 6  15.81783141154115  1.35541044304430 -0.00067686238624
 6  17.23087256535653  0.66393161756176  0.21740486658666
 6  18.34178372577258  1.67021421262126 -0.19202934973497
 6  19.66894909600960  1.00856935173517 -0.50193027672767
 6  19.79815961726173  0.04601003130313 -1.77394318551855
 6  20.68090525942594  2.05624704270427 -0.49088418431843
 1 -3.54300493879388  3.30104135513551  1.66273567526753
 1 -9.95090907340734  4.11077016211621  0.06173253935393
 1 -10.11186367796780 -2.73206360566056 -1.03970679657966
 1 -2.39450196699670 -1.33322093989399  2.03516356465647
 1 -1.82201153975398  1.21975245144514  0.82875932933293
 1 -1.19630101380138  1.09259757415742  2.65021573267327
 1 -2.42377055095510  2.43118169456946  2.99328544634463
 1 -2.85205753825383  0.85066295159516  3.44539040814081
 1 -1.71419043934393 -1.58348962196220 -0.65459324612461
 1 -1.47844301330133  0.04271279837984 -0.62119190999100
 1  0.33353135143514 -0.38914034733473  1.38551441664166
 1 -0.14366808660866 -1.80484681848185  1.18497872997300
 1 -3.99028355875588  5.76988481638164  0.58957391509151
 1 -5.08592887348735  6.96804948084809  0.63544045014501
 1 -4.64798582678268  5.94546350735073  2.12376014831483
 1 -8.78002101620162  6.26299140834083 -0.46383275907591
 1 -11.81780133373337 -1.55761662916292 -0.81669609680968
 1 -13.11849806480648 -0.03784738493849 -0.97545518191819
 1 -13.58399622272227 -0.48644075947595 -3.00873799089909
 1 -12.20357732153215  0.75886330783078 -2.90714288378838
 1 -11.42221904630463 -1.07155047204720 -3.22398900630063
 1 -9.17292647594759 -4.65546210181018 -1.94166639463946
 1 -7.65806102070207 -5.72187219981998 -1.08440809270927
 1 -9.00984826482648 -5.25581754295430 -0.08955434593459
 1 -3.21320090149015 -3.35912963786379 -0.27112541934193
 1  3.43035465086509 -3.58495576937694 -1.17221293839384
 1  2.70801509030903 -2.38972488748875 -2.53272350765076
 1  4.28192552025203 -1.22057480588059 -0.14345074347435
 1  4.40547360436044 -1.90508398089809 -3.71129124412441
 1  5.97175075347535 -1.21963063846385 -4.23977520142014
 1  5.81714554195420 -3.07836045034504 -3.26606078987899
 1  5.93976439833983  0.44768010541054 -2.04979759695970
 1  5.66562167156716  0.88821436923692 -0.69396365976598
 1  7.17381856075608 -1.31216941404140  0.03840556215622
 1  7.97076247464746 -1.51322011231123 -1.65470494639464
 1  8.48417054845484  1.11923251805180 -1.83459624492449
 1  7.89325782388239  1.37007219541954  0.01745745414541
 1  10.18253070017002 -1.74251169486949 -0.76431358895890
 1  8.51349359365937 -1.85784460016002  1.58662702350235
 1  10.42943901330133 -1.70271415261526  1.99477136853685
 1  9.12050526212621 -0.25454667706771  2.07625893099310
 1  10.69855349314932  1.20947370727073 -0.68509568116812
 1  10.60651039763976  1.32391126672667  1.10403428372837
 1  12.16274381658166 -0.46232867236724  1.54062774607461
 1  12.30066222022202 -0.90527874847485 -0.34335733323332
 1  13.27497236723672  1.45188473347335 -1.06634553915392
 1  13.31552359715971  2.05819007030703  0.83654944434444
 1  14.96093751955195 -0.47400491649165 -0.10512870407041
 1  15.11569146904690  1.27543793929393  2.39955272827283
 1  13.79922719621962 -0.35588326022602  2.78010550865087
 1  15.54238127122712 -0.70590417351735  2.19954643234323
 1  15.69602073697370  1.54772476587659 -1.61939191389139
 1  15.96471050365036  2.53206274177418  0.70386871007101
 1  17.61769308440844  0.53818698929893  1.05465565226523
 1  17.43486101030103 -0.34477630843084 -0.39660103750375
 1  17.69411441854185  1.89255580338034 -0.70598358665867
 1  18.53894389048905  2.50256416331633  0.29143581408141
 1  20.05061762296230  0.40533337953795  0.51726507730773
 1  19.38923724172417  0.80162521212121 -2.69195132033203
 1  21.15518980898090 -0.39518131993199 -1.85991012441244
 1  19.19823255025502 -1.06552427082708 -1.45702377707771
 1  20.63920069866987  2.83902348144814  0.27318807240724
 1  21.71421916221622  1.37203378607861 -0.36680939593959
 1  20.83936058895890  2.59276676387639 -1.24300909720972
 1 -0.28161378647865 -3.83563631303130  3.02275062306231
 1 -1.44604428542854 -4.75112238593859  3.29780041664166
 1 -1.64500851415142 -3.03588206530653  3.88399255245525
 8 -11.71865023932393  3.70957575677568 -0.64513632733273
 1 -12.73163367486749  2.07413865396540 -1.48123872887289

