%nproc=4
%Mem=2GB
# td=(NStates=1) iop(3/107=0140000000,3/108=0140000000) iop(3/107=0140000000,3/108=0140000000) CAM-B3LYP/6-31G(d,p) 

TD

0 1
12 -6.74254682678268  0.54201334543454  0.13240085958596
 6 -4.61624873137314 -2.06228465026503  0.31776205320532
 6 -4.30805262066207  2.64103573667367  0.90737361896190
 6 -8.83072577727773  3.35431945604560 -0.24806430813081
 6 -9.38881697929793 -1.65357838743874 -0.71248130683068
 7 -4.76833190509051  0.38029742744274  0.53362239433943
 6 -3.98005527112711 -0.99915962276228  0.67233778917892
 6 -2.71210462906291 -0.72089384858486  1.09454151645165
 6 -2.53306327212721  0.84543469226923  1.44259642214221
 6 -3.93804006690669  1.22941302650265  0.93220799549955
 6 -2.08510479617962  1.14212600850085  2.78374293709371
 6 -1.60151890029003 -1.13886645004500 -0.09692836653665
 6 -0.17475559385939 -1.24716642324232  0.59252832633263
 6  0.72050312951295 -1.31943918081808 -0.65865403920392
 8  0.65107517561756 -0.94475708820882 -1.65687667786779
 8  1.83410369696970 -2.15638593719372 -0.21333625612561
 7 -6.68753049524952  2.61440181018102  0.33822757065707
 6 -5.56181674257426  3.32575121832183  0.67965426162616
 6 -5.84030824602460  4.69083876867687  0.60131500010001
 6 -7.00430114351435  4.88518460896090  0.48509509280928
 6 -7.69884158805881  3.64214302270227  0.17845267666767
 6 -5.05053997429743  5.77645507600760  1.15117278527853
 6 -7.82584414571457  6.13329024912491  0.20556007970797
 8 -7.26525044124412  7.24000561716172  0.42507036383638
 7 -8.76443999749975  0.76042690189019 -0.38511116021602
 6 -9.45287896029603  1.93216795209521 -0.52176322862286
 6 -10.86003263356336  1.68976884798480 -0.90841662286229
 6 -10.93114747224722  0.25706661106111 -0.94264512001200
 6 -9.64460612391239 -0.29963812701270 -0.70881295799580
 6 -11.93710048534853  2.63402959605961 -1.17898254905491
 6 -12.27289040954095 -0.55412897519752 -1.31073920762076
 6 -12.02654951705171 -1.02136430163016 -2.79348214291429
 7 -6.95677216011601 -1.38392095339534 -0.16895954045405
 6 -8.07219988158816 -2.25344534123412 -0.42615581358136
 6 -7.78203578867887 -3.67010433283328 -0.59079008910891
 6 -6.35736135733573 -3.66601576247625 -0.15952421302130
 6 -5.99123541224122 -2.23645245974597 -0.06185000070007
 6 -8.53027155065507 -4.73054043184318 -0.84226704260426
 6 -5.17138334283428 -4.57111290939094  0.16084411011101
 8 -5.06868861756176 -5.75755629392939 -0.12073156655666
 6 -3.97615134053405 -3.56996755595560  0.51773642084208
 6 -3.55835934683468 -3.81076725222522  1.73833354635463
 8 -4.18885412551255 -4.16710344514452  2.77982665246525
 8 -2.10630230513051 -3.59779608490849  1.91094103330333
 6 -1.76153467556756 -3.93080817091709  2.97359178437844
 6  3.08121001380138 -2.26974215111511 -0.99261050515052
 6  4.25405917331733 -1.35616261736174 -0.69950548284829
 6  5.12908366376638 -0.91417828922892 -1.53693989558956
 6  5.21294527832783 -1.32193532823282 -3.04277125932593
 6  6.18187201180118  0.09330167726773 -1.10095665416542
 6  7.38796749074907 -0.61543732583258 -0.68660539783978
 6  8.70812337263726  0.27330296489649 -0.51080956145615
 6  9.96557964736474 -0.52576949724972  0.07866956125613
 6  9.79471698799880 -0.94474328902890  1.41226559535954
 6  11.01869419941994  0.62259711391139  0.14403924232423
 6  12.43961923242324  0.03204451165116  0.21093940514051
 6  13.45790733333333  1.07782505720572  0.17352025042504
 6  14.92002833803380  0.54271754985499  0.45536019811981
 6  15.06883187128713  0.18088580808081  1.80776070007001
 6  16.16936656505651  1.45025992799280  0.02020522582258
 6  17.31911138923892  0.78029325372537 -0.20998787268727
 6  18.59049859725973  1.63845103630363 -0.53327347414741
 6  20.04974717581758  1.13369186398640 -0.62025210891089
 6  20.05606540784078  0.27404283458346 -1.80707649884988
 6  21.10634780368037  2.20455187318732 -0.44961005690569
 1 -3.55973661196120  3.32206345734573  1.23272267396740
 1 -9.55010899339934  4.13874295939594 -0.57673130703070
 1 -10.12331482308231 -2.37071747104710 -1.21964479037904
 1 -2.23232574937494 -1.19620723852385  1.93586363466347
 1 -1.85121446004600  1.43312378857886  0.76547300070007
 1 -1.14660604430443  0.68502681708171  3.24390510161016
 1 -2.13378155205521  2.19082765916592  3.16901301910191
 1 -2.99571190369037  1.02067995329533  3.42737860696070
 1 -2.17320634093409 -2.17410868386839 -0.49438722552255
 1 -1.84060922992299 -0.49368084098410 -1.31628141894189
 1  0.13124112241224 -0.45806724002400  1.23380924612461
 1 -0.21918563836384 -1.94384071787179  1.56368660076008
 1 -3.73136766716672  5.97416524442444  1.00178513621362
 1 -5.54106438703870  6.76846952285228  0.76034294039404
 1 -4.99524055225523  5.91595055605561  2.52711048334833
 1 -8.72870588468847  5.97053216241624 -0.15554192999300
 1 -12.45772532613261 -1.44027489498950 -0.24729915711571
 1 -13.14303051805181  0.09243564336434 -1.37447508390839
 1 -13.38693651675167 -1.43413552895289 -3.03058017511751
 1 -11.70710767456746 -0.10639321782178 -3.57863003250325
 1 -11.31491831623162 -1.94807812481248 -3.20820742814281
 1 -9.11197038033803 -4.88514507010701 -1.72928515651565
 1 -8.09630484508451 -5.69649966256626 -1.16180583248325
 1 -9.27222450245025 -4.72277423862386 -0.08742413291329
 1 -3.05204478587859 -3.66997072197220 -0.33626193299330
 1  3.46279789518952 -3.41387866166617 -0.91574729182918
 1  2.97922221102110 -1.84621053605361 -1.97695793109311
 1  4.14594192189219 -0.99350209860986  0.49792339393939
 1  4.48451150815082 -0.26949042154216 -3.69382949794979
 1  6.33914749314931 -1.08245692109211 -3.45268649254926
 1  5.18173200060006 -2.68652126642664 -3.37136131993199
 1  6.62463288518852  0.50359569696970 -2.16740935813581
 1  5.58946405580558  0.72796834463446 -0.45244950835083
 1  7.20977215611561 -1.35455365246525 -0.11665994439444
 1  7.53133853225323 -1.38779757005701 -1.32556203210321
 1  9.16001813321332  0.69474006880688 -1.48179096439644
 1  8.40772927102710  1.10438562676268  0.21361707010701
 1  10.05583803090309 -1.27379482318232 -0.47571472907291
 1  8.76425867016702 -1.61865068076808  1.56521488228823
 1  10.63239930933093 -1.31413529472947  1.79877176857686
 1  9.85221843344335 -0.59824104650465  2.25368667376738
 1  11.09695333313331  1.22229498939894 -1.08936610821082
 1  10.80771051765177  1.53302217781778  0.79541342164216
 1  12.54318186038604 -0.83096553605361  1.02890657395740
 1  12.42378453245325 -0.79212743334333 -0.47501049854986
 1  13.70006487648765  1.50474001900190 -1.16555546014601
 1  13.32181422622262  2.02300655195520  0.89133492289229
 1  14.84944637043704 -0.35755327132713 -0.18415660686069
 1  14.89132903280328  0.66036643214321  2.44727750075007
 1  14.62470974447445 -0.35285295719572  1.65340283838384
 1  15.90629766286629  0.04867128402840  2.11505798349835
 1  15.88436957185719  1.98292828622862 -0.54917489218922
 1  16.44223825642564  2.07095663116312  0.80728905210521
 1  17.56653796889689  0.34714788538854  0.45761594829483
 1  17.34874239843984 -0.06413824462446 -0.83025440284028
 1  18.50841584868487  2.31681822962296 -1.55276826512651
 1  18.50219021512151  2.49311321822182  0.00713738423842
 1  20.03173573477348  0.42467531373137 -0.03240989018902
 1  19.69401771977198  0.80372542214221 -2.68321044624462
 1  20.79731402140214  0.03601179937994 -1.81838597199720
 1  19.16438916591659 -0.24910262866287 -1.76510458515852
 1  21.33242002060206  2.79074865396540  0.33779453305331
 1  21.89165690599060  2.02641922462246 -1.00288300330033
 1  20.89589624252425  2.80696818401840 -1.30130492679268
 1 -0.76274189928993 -3.50851360076008  2.66078442644264
 1 -1.73926360736074 -5.04794206790679  3.49454009060906
 1 -2.13849786308631 -3.78373685078508  3.69838399159916
 8 -11.91322969726973  3.84377917711771 -0.96934874857486
 1 -12.80890140164017  2.32594383448345 -1.58279888488849

