%nproc=4
%Mem=2GB
# td=(NStates=1) iop(3/107=0140000000,3/108=0140000000) iop(3/107=0140000000,3/108=0140000000) CAM-B3LYP/6-31G(d,p) 

TD

0 1
12 -6.75388796089609  0.56027517161716 -0.06419880038004
 6 -4.47155426192619 -1.92240066186619  0.34041431843184
 6 -4.21211302670267  2.89948158125813  0.76018890049005
 6 -9.03890659535954  3.12501652575257 -0.13790329202920
 6 -9.30487858545855 -1.73033606320632 -0.67526758545855
 7 -4.71671674357436  0.37382678037804  0.52651168326833
 6 -3.89923718931893 -0.77598730553055  0.61078163356336
 6 -2.48589200780078 -0.37090885008501  1.02867492979298
 6 -2.44613457925793  1.12545269406941  1.24513667616762
 6 -3.92100836373637  1.40442052725273  0.79733450815082
 6 -2.20230651635164  1.53115491139114  2.75667022982298
 6 -1.43037178557856 -0.73607617101710 -0.13182185588559
 6 -0.00916903520352 -1.00083178977898  0.48104717821782
 6  0.93461454065407 -1.19264650155016 -0.69615778957896
 8  0.97996806490649 -0.88060067256726 -1.84657564776478
 8  1.85486577317732 -2.07389768836884 -0.21577650015002
 7 -6.65898764096410  2.52965333533353  0.27475122302230
 6 -5.60249080998100  3.33523216641664  0.66138243444344
 6 -5.96637085228523  4.88052773757376  0.73072794139414
 6 -7.41544225762576  4.80626671717172  0.50953753705370
 6 -7.81497320122012  3.52035084348435  0.23513834523452
 6 -4.90800572087209  5.81043847434743  1.02072974097410
 6 -8.21880344164416  5.95691261136114  0.50957048074807
 8 -7.77683159935994  7.17227884448445  0.89708756555656
 7 -8.72240579407941  0.71363222242224 -0.46803945304530
 6 -9.47860153255326  1.77841257655766 -0.47049810211021
 6 -10.96000263056306  1.59399927102710 -0.75821160236024
 6 -11.01043540104010  0.14561546594659 -0.93558441394139
 6 -9.71499316261626 -0.46725488868887 -0.65158723542354
 6 -11.95933270857086  2.65838203130313 -1.14691934273427
 6 -12.25305842634263 -0.67953151545155 -1.26857499119912
 6 -12.24690155225523 -1.34153631883188 -2.72098489318932
 7 -6.99054553745375 -1.40826338763876 -0.04561720622062
 6 -8.06751941354135 -2.24994499119912 -0.36275947394739
 6 -7.51275886098610 -3.63057037943794 -0.47051806190619
 6 -6.23015863706371 -3.51953111401140 -0.18619688028803
 6 -5.80132642134213 -2.17394620912091  0.18984516881688
 6 -8.41991051455146 -4.65085246304630 -0.79870268616862
 6 -5.07379358385839 -4.35033083118312 -0.06325830013001
 8 -4.75016676537654 -5.50150068836884 -0.19727922132213
 6 -3.94953867926793 -3.47409796899690  0.46154080128013
 6 -3.49867337823782 -3.70361653715372  1.80470018301830
 8 -3.95914115421542 -4.01846858165817  2.76416508630863
 8 -2.06829850475048 -3.53473977927793  1.89154909410941
 6 -1.20429895199520 -3.98817390749075  3.16547097229723
 6  2.95680757355736 -2.39269444634463 -1.23250449454945
 6  4.02790655805581 -1.40318731983198 -0.89875540784078
 6  4.95347610301030 -1.11236810821082 -1.77202340394039
 6  5.13327731153115 -1.96815995069507 -3.06696367856786
 6  6.15569939453945 -0.07049470237024 -1.57908446694670
 6  7.39037773177318 -0.81179696179618 -1.01696843414341
 6  8.36137869816982  0.21157679227923 -0.66695517601760
 6  9.65370846024602 -0.35616253655366  0.04520621492149
 6  9.62226974327433 -1.12767158185819  1.20821519031903
 6  10.82748507850785  0.65080993519352  0.16316115451545
 6  12.25958122862286  0.07894920212021  0.38993730493049
 6  13.40551209380938  1.07037431213121  0.13074597299730
 6  14.86053238843884  0.37111038913891  0.44528919101910
 6  14.89792478057806 -0.16975925642564  1.92497242124212
 6  15.93361298969897  1.40947584958496  0.19204240954095
 6  17.50656013411341  0.67129235363536  0.27046017211721
 6  18.61337088448845  1.78479567076708 -0.28795894269427
 6  19.91668386948695  1.10411890669067 -0.38333841754175
 6  20.19939974127413  0.35517094739474 -1.84386017721772
 6  21.25605277417742  2.08076949494949 -0.40461555745575
 1 -3.49162980128013  3.76003725472547  1.23062246394639
 1 -9.71482546504650  3.95247433253325 -0.30354398829883
 1 -10.15228772037204 -2.29649004830483 -0.75675850175018
 1 -1.95529804660466 -0.95315293309331  2.01180122842284
 1 -1.81808114671467  1.72743321952195  0.70206666006601
 1 -1.64459584328433  1.09947826222622  3.10501121222122
 1 -1.79806798069807  2.51692026842684  2.62931904970497
 1 -3.05969830233023  1.46203408870887  3.49132500160016
 1 -1.77831685198520 -1.73079435243524 -0.81848963576358
 1 -1.42901807080708  0.03551207830783 -1.04322411321132
 1  0.61511951025103 -0.22415384868487  1.12791865706571
 1 -0.07904162396240 -1.99523585738574  1.08521875397540
 1 -4.04967949834983  5.37200502840284  0.33543850155015
 1 -5.05338561916192  6.59388206410641  0.69594650075007
 1 -4.81284231243124  6.11012997399740  1.98929670197020
 1 -9.23230624472447  5.80241535073507  0.14695832003200
 1 -12.54893444704471 -1.53393426092609 -0.28979340654065
 1 -12.88552476747675  0.31072747254725 -1.34073170957096
 1 -13.10095791889189 -2.16513862926293 -2.96190330743074
 1 -12.01979894369437 -0.80256283478348 -3.93287545704570
 1 -11.55920274467447 -2.04546786378638 -2.70217682508251
 1 -9.15465464876488 -4.19901645724573 -1.59635186318632
 1 -7.87309252385239 -5.51285129772977 -1.53476312821282
 1 -8.64771205120512 -5.22514447564756  0.51018562806281
 1 -3.05319490089009 -3.66963068796880 -0.24312261906191
 1  3.15798741414142 -3.48285555935594 -0.71335705280528
 1  2.53355764456446 -2.54866078107811 -2.03131336663666
 1  4.00078740644064 -0.60307305570557 -0.16656305470547
 1  4.18727178417842 -1.48552202470247 -3.34240435543554
 1  6.16860043844384 -1.78666734213421 -3.82134335823582
 1  4.82292612001200 -3.52107472177218 -2.94980916471647
 1  6.64270469236924  0.49362469986999 -2.70932354955496
 1  5.64550966036604  0.88853440124012 -0.76883114651465
 1  6.96550772967297 -1.15936413351335  0.15218694029403
 1  7.65929132753275 -1.48578736903690 -1.78581805770577
 1  8.78216034743474  0.87324791959196 -1.54247703300330
 1  7.88249674777478  0.81351653985398  0.21354706310631
 1  9.89037148424842 -1.11400884458446 -0.91133829142914
 1  8.76499874417442 -1.70034885058506  0.70833919471947
 1  10.43297936733673 -1.48933281448145  1.77414930633063
 1  9.09560277187719 -0.42913413581358  1.80695200030003
 1  11.01305494329433  1.37090985088509 -0.74817198879888
 1  10.52843258985899  1.24924379998000  0.71499537983798
 1  12.55940348254825 -0.33461590109011  1.18006168946895
 1  12.28595074907491 -1.21831005160516 -0.06307930543054
 1  13.13762863286329  1.25000454545455 -1.24108301290129
 1  13.18748079287929  2.06302055335534  0.72828861826183
 1  15.13155458125813 -0.75786330233023 -0.26897508870887
 1  14.45163506340634  0.81683207870787  2.44459723272327
 1  14.27910518401840 -1.03277094899490  2.02937043514351
 1  15.98812584568457 -0.66274985808581  2.11586806450645
 1  15.76195733063306  2.00991098449845 -0.91143111781178
 1  15.57650168276828  2.21050058555856  1.00176850005000
 1  17.71278259335934  0.39296246684668  1.07715790249025
 1  17.39061658585858 -0.49554138493849 -0.32505388278828
 1  18.22160716781678  2.33813036083608 -0.86557954625463
 1  18.60159015511551  2.60401430833083  0.31871854235424
 1  20.19463202440244  0.28481132733273  0.57055040584058
 1  20.32348066606660  1.09409445904590 -2.63227535273527
 1  21.16611090109011 -0.45070687248725 -1.80935506890689
 1  19.12797552455245 -0.52569028742874 -1.94111218591859
 1  20.95335211381138  2.95382496159616  0.41479223282328
 1  22.14358209850985  2.03254983768377 -0.53063577857786
 1  21.27747440034003  2.64288177537754 -1.36564136043604
 1  0.00303467836784 -3.56039878927893  2.48412676067607
 1 -1.36458613961396 -5.06177345104511  3.23078371497150
 1 -1.80044405770577 -3.27346582368237  4.05268942214221
 8 -11.74437281158116  3.79749454865487 -1.00213202690269
 1 -12.75460597209721  2.19277051715171 -1.51138174317432

