%nproc=4
%Mem=2GB
# td=(NStates=1) iop(3/107=0140000000,3/108=0140000000) iop(3/107=0140000000,3/108=0140000000) CAM-B3LYP/6-31G(d,p) 

TD

0 1
12 -6.82311488358836  0.57477662176218  0.12532015151515
 6 -4.41328843534353 -1.97918634043404  0.52719299629963
 6 -4.20149196459646  2.84188582168217  0.73838672027203
 6 -9.12233493819382  3.17078110221022 -0.18414791649165
 6 -9.26596469406941 -1.68614164376438 -0.79596965566557
 7 -4.60704577647765  0.44502390009001  0.66401543364336
 6 -3.80872813841384 -0.74078378517852  0.74053460886089
 6 -2.54559797839784 -0.49013077227723  0.98055011731173
 6 -2.49442940874087  1.07027717651765  1.06315847834783
 6 -3.84952121502150  1.55650573577358  0.85792056675668
 6 -2.13880016571657  1.53466526242624  2.46640120292029
 6 -1.60974972337234 -0.98786134953495 -0.06794546824682
 6 -0.01988010631063 -0.69576128272827  0.33434250775077
 6  0.73672475167517 -1.31590882778278 -0.88712688648865
 8  0.70867093519352 -0.85019763226323 -2.01867285748575
 8  1.72765305190519 -1.95922622122212 -0.35110003250325
 7 -6.75531727392739  2.71946231623162  0.30506425432543
 6 -5.64779534043404  3.32809145234523  0.66466276247625
 6 -6.10356457165717  4.84135382018202  0.58794366296630
 6 -7.44365507890789  5.00251634213421  0.38954553785379
 6 -7.88913061696170  3.50585939433943  0.01908674007401
 6 -5.10161508180818  6.00023745424542  0.90709837783778
 6 -8.21747330863086  6.24380130023002  0.31556107980798
 8 -7.71287520372037  7.30607222382238  0.34433229002900
 7 -8.85795934943494  0.71961282048205 -0.42844549364937
 6 -9.65846951935194  1.85010974627463 -0.37511856415642
 6 -11.08526515681568  1.47634750585059 -0.65794157535754
 6 -11.04876923442344  0.02701360576058 -0.93148400390039
 6 -9.81206286958696 -0.37615577877788 -0.70797287398740
 6 -12.14177095239524  2.38822501560156 -0.78513316411641
 6 -12.18132125262526 -0.74705826812681 -1.23897203090309
 6 -12.37237409950995 -0.63716588178818 -2.88621141584158
 7 -6.76194267716772 -1.34621718301830  0.07730508600860
 6 -7.98814147574757 -2.13332332903290 -0.36935013301330
 6 -7.54694227932793 -3.62003932633263 -0.44365537563756
 6 -6.10391601280128 -3.59665882678268 -0.05464372497250
 6 -5.79832612131213 -2.21702051655165  0.18014419871987
 6 -8.22329085258526 -4.77475485328533 -0.78578139403940
 6 -5.00111631613161 -4.46391218931893  0.28198622432243
 8 -5.04607635633563 -5.67156769506951  0.27259776637664
 6 -3.81823554895490 -3.31053161236124  0.55081972917292
 6 -3.05217872877288 -3.53631980748075  1.81140085308531
 8 -3.59481472157216 -3.82089882468247  2.89037770757076
 8 -1.59759143404340 -3.75421172647265  1.59330927012701
 6 -0.91464998709871 -4.08037312741274  3.03382780798080
 6  2.95990788358836 -2.34567974487449 -1.23182442654265
 6  4.08547231463146 -1.34640164126413 -0.92464799709971
 6  5.07578833423342 -1.16866373777378 -1.78194439603960
 6  5.19007299109911 -1.53382651735174 -3.30822780498050
 6  6.21020484508451 -0.03757141004100 -1.48187474597460
 6  7.47691638563856 -0.86123190529053 -0.97206394369437
 6  8.51763432373237  0.01022665726573 -0.32523100360036
 6  9.78246133553355 -0.61023794409441 -0.00776908260826
 6  9.48264578087809 -1.46315513021302  1.10388475727573
 6  10.99273160316032  0.47786264046405  0.15468030643064
 6  12.33268853935393 -0.18123681648165 -0.08925061386139
 6  13.51517305990599  0.83054032873287  0.24136703510351
 6  14.86278261346135  0.30973425152515  0.38453311541154
 6  14.90596558465847 -0.48579085958596  1.81359128312831
 6  16.05898552695270  1.25440034203420  0.50870407570757
 6  17.39367884598460  0.70094531893189 -0.16494336823682
 6  18.53849339673967  1.76721391259126 -0.07086723352335
 6  19.87804000510051  1.23965246004600 -0.41576165986599
 6  19.85904570587059  0.65828125842584 -1.60992678387839
 6  20.96186335523553  2.18462988098810  0.00036494059406
 1 -3.52827346564656  3.63073432443244  1.09345874757476
 1 -9.75760974347435  4.23322240734073 -0.33319695359536
 1 -9.95222771437144 -2.31581198049805 -1.11567439333933
 1 -2.32435495229523 -1.29735735353535  2.08357840614061
 1 -1.77001634023402  1.48301877807781  0.36116256965697
 1 -1.27228861256126  1.23994230863086  2.58794950605061
 1 -2.64821299519952  2.55275385178518  2.67069318711871
 1 -2.48923125562556  1.13185107040704  3.10228609770977
 1 -1.53203222352235 -2.27583885688569 -0.38095588238824
 1 -1.75775094409441 -0.53685515841584 -1.13499329012901
 1  0.24276227452745  0.71049961666167  0.32437830303030
 1  0.09452573277328 -1.36107244104410  1.38424865696570
 1 -3.81496602700270  6.00109793769377  0.48078303600360
 1 -5.52702298289829  7.13161583748375  0.19425633173317
 1 -4.94614564276428  6.44366332733274  2.30331810411041
 1 -9.50032304640464  6.02780788998900  0.62438606280628
 1 -11.95263481708171 -1.99148001550155 -1.02828725592559
 1 -12.94656087108711 -0.45578917911791 -0.54588222462246
 1 -13.44337216031603 -1.01035315071507 -3.08209532663266
 1 -12.21691865566557  0.33018043954395 -3.43292546204621
 1 -11.49980680508051 -1.33920723772377 -3.10025663306331
 1 -8.73964314761476 -4.89179573517352 -1.87527975597560
 1 -7.39551476607661 -5.87491750435044 -0.76525617751775
 1 -9.35175245524553 -5.58894085528553 -0.17056244674467
 1 -3.26751633303330 -3.64428815371537 -0.39802810961096
 1  3.14922653805381 -3.44949222302230 -0.82388810591059
 1  2.85503979277928 -2.13915983098310 -2.35977621292129
 1  4.18590591829183 -0.80792354075408  0.30755435703570
 1  4.46450950795080 -0.99960343284329 -3.99909002400240
 1  6.12232581098110 -1.22382105750575 -3.74000522442244
 1  5.01585541294129 -2.61798441274127 -3.70286447024702
 1  6.18053847574757  0.60857619501950 -2.21653427062706
 1  5.79745485488549  0.60381592939294 -0.57806206960696
 1  7.27253843274327 -1.76649484658466 -0.53500177857786
 1  8.35718111651165 -1.06197498779878 -1.88957843374337
 1  8.81187331873187  0.77676827162716 -0.91682446774677
 1  8.23345184328433  0.33830901910191  0.49930563896390
 1  9.87382983008301 -1.19329677337734 -0.60790794839484
 1  8.43537578187819 -2.19983879957996  0.98946730753075
 1  10.26606267566757 -2.21486536773677  1.30268215961596
 1  9.29361257285729 -0.83230445284528  2.14034533963396
 1  10.66178981678168  1.13213597349735 -0.76074324592459
 1  10.78632837943794  1.28361723732373  1.06570045034503
 1  12.42258980118012 -0.85565800530053  0.83460714401440
 1  12.46242839683968 -0.28669689028903 -0.93739673717372
 1  13.58599346934693  1.67346689168917 -0.46460536513651
 1  13.37030907570757  1.23282753405341  1.04468025742574
 1  15.13639506530653 -0.33801131713171 -0.55742393359336
 1  14.20096999689969  0.17446784228423  2.86428920192019
 1  14.66636390989099 -1.93199087098710  1.45754325242524
 1  16.12934996809681 -0.28658224132413  2.46003248094810
 1  15.73629476437644  1.96760675407541 -0.34817479217922
 1  16.36170020262026  1.47271680718072  1.70479880308031
 1  17.52584389948995 -0.25149197859786  0.33219340604060
 1  17.53814133833383  0.55173334253425 -1.38569994739474
 1  18.39364437153716  2.71700824862486 -0.53800678897890
 1  18.85155515161516  2.10619452635264  1.01069774027403
 1  19.79288184938494  0.26595944214421  0.17853120392039
 1  19.79289760776078  1.52610766036604 -2.31456358155816
 1  20.82528681868187  0.47721591979198 -1.61554568796880
 1  19.13117584458446  0.13849613121312 -1.99220729542954
 1  21.02092887148715  2.20415999509951  1.32019277287729
 1  21.87733547384738  1.70913749644965 -0.32638535353535
 1  20.72709936283628  3.14536202340234 -0.14803960026003
 1  0.06304067896790 -4.16870962036204  2.45484383238324
 1 -1.34083376437644 -4.76635390909091  3.80284092069207
 1 -0.87163117641764 -3.11939041614161  3.48025217841784
 8 -12.05735410971097  3.52237703690369 -0.71105291899190
 1 -13.11752226372637  2.29265050515051 -1.09283988898890

