%nproc=4
%Mem=2GB
# td=(NStates=1) iop(3/107=0140000000,3/108=0140000000) iop(3/107=0140000000,3/108=0140000000) CAM-B3LYP/6-31G(d,p) 

TD

0 1
12 -6.62150472257226  0.65200434453445  0.22164978447845
 6 -4.48499560606061 -2.05050347214722  0.49794007100710
 6 -4.21606342174217  2.77463909700970  1.00123300490049
 6 -8.85432813751375  3.19487351145115 -0.18290779247925
 6 -9.21145924352435 -1.52083511311131 -0.69278933763376
 7 -4.60756582848285  0.48035743344334  0.62213124522452
 6 -3.86068333393339 -0.80174988178818  0.60092064746475
 6 -2.37717113571357 -0.51010276947695  0.90772283458346
 6 -2.41896186198620  1.03078322712271  1.17464962746275
 6 -3.82718898179818  1.38825891109111  0.79458423312331
 6 -2.14294057975798  1.44904670057006  2.72067663046305
 6 -1.52246099449945 -0.93399596299630 -0.15395406910691
 6 -0.05497361566157 -1.12018372497250  0.26099517301730
 6  0.69869094829483 -1.66723396029603 -0.93966214001400
 8  0.59550961906191 -1.19954256675668 -2.09327031723172
 8  1.75313560016002 -2.45905620422042 -0.55684060656066
 7 -6.62251399359936  2.61966233623362  0.34484823272327
 6 -5.43531409230923  3.17820646384638  0.59996629282928
 6 -5.74987920312031  4.73920360516052  0.74081895049505
 6 -7.06916763016302  4.91689778027803  0.28845542884288
 6 -7.61077278117812  3.54383319171917  0.14581941334133
 6 -4.74032895319532  5.79657708820882  1.00860852885289
 6 -7.77827938923892  6.16896381648165  0.31692121582158
 8 -7.40697461366137  7.17212882948295  0.68425628242824
 7 -8.61077463096310  0.82155301450145 -0.38571122022202
 6 -9.32630630303030  1.88282301760176 -0.44437548984899
 6 -10.59256588688869  1.70882075317532 -0.88708448964897
 6 -10.94125848334833  0.32508341274127 -0.80149100460046
 6 -9.43736539983998 -0.28948711191119 -0.62461453815382
 6 -11.73292006730673  2.67690388348835 -0.82353700450045
 6 -12.12816593709371 -0.48661222352235 -1.17254538823882
 6 -12.29390625272527 -0.71051321652165 -2.73863665836584
 7 -6.97542402530253 -1.39164172547255  0.02549990549055
 6 -8.00915357695770 -2.28015801250125 -0.49695289328933
 6 -7.63771135623562 -3.56919424182418 -0.40614162426243
 6 -6.34109973117312 -3.64583374427443  0.07241898129813
 6 -5.99852614131413 -2.28102691719172  0.23059924422442
 6 -8.49775829932993 -4.78249562736274 -0.78120093599360
 6 -5.08247445194519 -4.32964876297630  0.34752277797780
 8 -4.76198794749475 -5.52360289858986  0.06368687528753
 6 -3.84128785418542 -3.45728628782878  0.64597924512451
 6 -3.27057056795680 -3.88279445494549  1.84215392839284
 8 -3.70363560366037 -4.18742547734773  2.90279894969497
 8 -1.90558223312331 -3.61390769606961  1.74383432263226
 6 -1.10962948504851 -4.10268535863586  2.88052247744774
 6  2.89561145394539 -2.68696387328733 -1.34710595469547
 6  3.89991375877588 -1.65809281038104 -1.10609614191419
 6  5.05239599499950 -1.29118598999900 -1.84752095369537
 6  5.20847483128313 -2.02975611031103 -3.04336131833183
 6  5.98978280288029 -0.24583223612361 -1.71656821532153
 6  7.31488018201820 -0.87970375247525 -1.15640237753775
 6  8.42210477077708  0.18699433403340 -0.90516899739974
 6  9.62205529492949 -0.37822474277428 -0.27893619931993
 6  9.38386590289029 -0.72467128182818  1.41275564436444
 6  10.78565089508951  0.69357421162116 -0.25021018261826
 6  12.15947121762176  0.09146045324532  0.29870818201820
 6  13.18627016961696  1.21420869556956  0.23782668106811
 6  14.58370470567057  0.53272655075508  0.51660632273227
 6  14.66685167326733 -0.09224150465046  1.99329925392539
 6  15.71320094849485  1.43030793279328  0.26048925422542
 6  17.23138261636164  0.80866609100910  0.36865999209921
 6  18.17028657605761  1.82264945614561 -0.06958710551055
 6  19.58711091219122  1.33727222202220 -0.23563364706471
 6  19.77484728602860  0.54083951425142 -1.49159495069507
 6  20.58420558945895  2.42682410041004 -0.21363645954595
 1 -3.36292693099310  3.43124437543754  0.98938834053405
 1 -9.73953793629363  3.73747283238324 -0.32369600350035
 1 -10.13155564716472 -2.21483188248825 -1.23601642754275
 1 -2.08515103190319 -0.80697831563156  1.77521757005701
 1 -1.55094443304330  1.62496297249725  0.39809626302630
 1 -1.03766515021502  1.19332764716472  3.19026973807381
 1 -1.84357253115312  2.61778035443544  2.77826394419442
 1 -3.03170550305031  1.04213209850985  3.46831270037004
 1 -1.97284630493049 -1.81684295729573 -0.52286007280728
 1 -1.50415558455846 -0.30317179007901 -1.21090088088809
 1  0.47974597289729 -0.07635906920692  0.51754761996200
 1 -0.48693241304130 -1.75609194299430  1.08430866296630
 1 -4.00383491389139  6.07335516341634 -0.14314935723572
 1 -5.46483676427643  6.70560323622362  0.93398030413041
 1 -3.88523955215522  5.68081704270427  1.85716348864887
 1 -8.70684369846985  5.94475958515852 -0.20685706150615
 1 -12.12264181778178 -1.36288715621562 -0.50584501170117
 1 -13.16978319331933  0.10551695149515 -0.67733536993699
 1 -13.32272009510951 -1.32532464786479 -2.70033715081508
 1 -12.41086805060506 -0.03931651015101 -3.37541971147115
 1 -11.59532635703570 -1.31158447544755 -3.09634624202420
 1 -9.42380156345635 -4.58814537013701 -1.68477070507051
 1 -7.76867208180818 -5.65117513011301 -0.46385603750375
 1 -9.51830911091109 -5.17249921112111 -0.00715610611061
 1 -3.15345492689269 -3.73747747264727 -0.38261656845685
 1  3.50824243964396 -3.69489676347635 -0.88320403750375
 1  2.68817310611061 -3.08716463146315 -2.56602683798380
 1  3.47092442014201 -1.20204295269527 -0.39373577197720
 1  4.39223228022802 -2.18591206370637 -3.84684479947995
 1  6.10158373677368 -1.45693436883688 -3.67052827672767
 1  5.46752057945795 -3.15372798709871 -2.89021320512051
 1  6.37213763566357  0.46885222262226 -2.63101571877188
 1  5.42916802620262  0.49014456225623 -1.12614687808781
 1  7.10599177807781 -1.19076727382738  0.03296501810181
 1  7.74123952235223 -1.69961875217522 -1.96240571647165
 1  8.60080221162116  0.51510210501050 -1.82852563786379
 1  8.08030652875287  0.74441963016302 -0.55329962156216
 1  9.83744619171917 -1.35696314001400 -0.89778693629363
 1  8.38682092639264 -1.48138695439544  1.47957631843184
 1  10.48542461186119 -1.39777365856586  1.85458735013501
 1  9.06961017261726  0.30599937753775  2.23178448354836
 1  10.67779141694169  1.45943870377038 -1.22877004860486
 1  10.57501724832483  1.54434330993099  0.35223910421042
 1  12.03920146234623 -0.47524996449645  1.07017070037004
 1  12.51457361136114 -0.76791501210121 -0.41581457895790
 1  13.08808367836784  1.80646019101910 -0.64437334193419
 1  13.03929597439744  1.95179943124312  1.15579136853685
 1  14.75536696249625 -0.18331584758476 -0.31376956815681
 1  14.78235813571357  0.52113250875087  2.63553632663266
 1  13.86916418991899 -1.04529220112011  2.04243174127413
 1  15.71601863496350 -0.20224380748075  2.31769824752475
 1  15.36645778067807  1.88974896829683 -0.53629360406041
 1  15.72701673427343  2.19445898139814  1.11492981618162
 1  17.64001531663166  0.28781195179518  1.50514070077008
 1  17.00296782098210 -0.18111994279428 -0.43595497289729
 1  18.25568057515752  2.56335288308831 -1.16163915221522
 1  17.82632262836284  2.54087799469947  0.91492816331633
 1  19.73416597779778  0.61056390259026  0.60891424222422
 1  19.58695701370137  1.01801685128513 -2.60894301950195
 1  20.92776706670667  0.07733593179318 -1.76598073147315
 1  19.24193692069207 -0.32524024242424 -1.58410648534853
 1  20.69146592519252  2.79857943704371  0.73465421902190
 1  21.61661940224023  2.30595717841784 -0.16758947394739
 1  20.39869652255225  2.98302578977898 -1.02576737303730
 1 -0.19607523262326 -4.52066481588159  2.23032138013801
 1 -1.72660234123412 -4.75478275197520  3.73534417101710
 1 -0.79423343664366 -3.33565204230423  3.63366751995200
 8 -11.45288366266627  3.90230502970297 -0.85956777047705
 1 -12.89136964846485  2.30509174927493 -0.69070967596760

