%nproc=4
%Mem=4GB
# td=(NStates=1) iop(3/107=0140000000,3/108=0140000000) iop(3/107=0140000000,3/108=0140000000) CAM-B3LYP/6-31G(d,p) 

TD

0 1
12 -5.65464697129713  1.23737861216122  0.16534513971397
 6 -4.96292667986799 -2.07707617091709 -0.31613848064806
 6 -3.36927571667167  1.22918320312031  2.76875224852485
 6 -6.29392818851885  4.49981324552455  0.66805701450145
 6 -8.02501826892689  1.14933578427843 -2.35525319881988
 7 -4.31104535783578 -0.27319551135113  1.02649398819882
 6 -4.18494202170217 -1.58891259285929  0.69616196579658
 6 -3.13989711421142 -2.26736003880388  1.42154651835184
 6 -2.83566673767377 -1.30912380328033  2.57409396549655
 6 -3.55910333773377 -0.02930555825583  2.16726131133113
 6 -3.37366040544054 -1.68617205860586  3.96109880928093
 6 -1.92313750695070 -2.71874928422842  0.63275858135814
 6 -0.98805044854485 -3.64465204580458  1.37010059805981
 6  0.24785988648865 -4.01334517521752  0.64232242694269
 8  0.45916598089809 -3.70382769636964 -0.54743097729773
 8  1.09314616031603 -4.79047866516652  1.26265087238724
 7 -4.95896671297130  2.64205358225823  1.44331456315632
 6 -4.02880497029703  2.39981740344034  2.38059866316632
 6 -3.75193469716972  3.71637013921392  3.04729528572857
 6 -4.62226277897790  4.61347287558756  2.49710898219822
 6 -5.36224232843284  3.93410150535053  1.50923701600160
 6 -2.83406876997700  3.86969434523452  4.24430862026203
 6 -4.81568809940994  6.05946336683668  3.01330083488349
 8 -4.27555760376038  6.71208909690969  3.86972087198720
 7 -7.05742954285429  2.66101599739974 -0.61769342564256
 6 -7.12498521332133  3.90660027722772 -0.27183887258726
 6 -8.02316750315032  4.64648137293729 -1.21318542804280
 6 -8.47730718401840  3.61368829872987 -1.98741768616862
 6 -7.74068295879588  2.42058806760676 -1.66994294079408
 6 -8.46550954185419  5.98925883528353 -1.12514202300230
 6 -9.38231259455946  3.89066946514651 -3.16299093189319
 6 -8.61715316901690  4.11870001620162 -4.44022042604260
 7 -6.36625504450445 -0.11772679037904 -1.22610770277028
 6 -7.33919344894489 -0.05400146874687 -2.12242645334533
 6 -7.48390589778978 -1.36797850145015 -2.83459598219822
 6 -6.64607415621562 -2.22697226902690 -2.05403156885689
 6 -5.93131154655466 -1.43365693079308 -1.14851098149815
 6 -8.40914637243724 -1.72025215121512 -3.90153704990499
 6 -6.14809847694769 -3.53671925582558 -1.94571812691269
 8 -6.48126252175218 -4.56876457485749 -2.47089335443544
 6 -5.00162872497250 -3.51416946954695 -0.82575489528953
 6 -5.36837431483148 -4.58417385848585  0.24280795259526
 8 -5.89156492809281 -4.38292730083008  1.31974833823382
 8 -4.97169686788679 -5.83499469586959 -0.22439558415842
 6 -5.28371593579358 -6.92158401170117  0.57584941474147
 6  2.25030600380038 -5.07236835703570  0.62364631903190
 6  3.40317485248525 -4.10047020792079  0.90573847364736
 6  3.97875726592659 -3.22648551865187  0.04229786478648
 6  3.74852919181918 -3.04563950525052 -1.41383088758876
 6  5.15129155495550 -2.43294834243424  0.59907370617062
 6  6.51318618991899 -2.63698662386239 -0.10362889548955
 6  7.56129145274527 -1.77803715921592  0.38003369386939
 6  9.01380220152015 -1.93075790939094 -0.18857664016402
 6  9.62504888658866 -3.25737637803780  0.14028057035704
 6  9.92758333743374 -0.81115135253525  0.43535605110511
 6  11.30451775417542 -0.77757736463646 -0.27163592979298
 6  12.23559124772477  0.32488711621162  0.15092193979398
 6  13.55706816261626  0.50067493739374 -0.58740350355035
 6  14.46132443144315 -0.73738314091409 -0.24963911481148
 6  14.24917085668567  1.80360653225323 -0.16983623842384
 6  15.54378856925693  1.99582761096110 -0.90814580958096
 6  16.19298188258826  3.42592734553455 -0.54195480868087
 6  17.43600884998500  3.80465830743074 -1.31508544374437
 6  17.20437302700270  3.95139003070307 -2.87113933813381
 6  18.11094050015001  5.00263552885289 -0.68510796969697
 1 -2.75184090689069  1.37118139353935  3.57886835523552
 1 -6.54122210101010  5.54622000240024  0.84031302300230
 1 -8.79690009720972  1.29908021092109 -3.14644012281228
 1 -3.63674473927393 -3.20830614601460  1.88576663746375
 1 -1.73418054195420 -1.13066072767277  2.61155243134313
 1 -2.73126290539054 -2.50576373757376  4.28337188118812
 1 -2.85828662136214 -0.90750065446545  4.72570460026003
 1 -4.46607911961196 -2.01722080298030  3.94305825632563
 1 -2.13744905860586 -3.18030754805481 -0.48680930473047
 1 -1.41022885528553 -1.90724984128413  0.16860498209821
 1 -0.56191162466247 -3.10610190579058  2.23871809050905
 1 -1.31869659125913 -4.59197632883288  1.82255405340534
 1 -1.69631974577458  3.62193171757176  4.01182709240924
 1 -2.76581757185719  4.83873107910791  4.68857511521152
 1 -3.17654064906491  3.17677867536754  5.00819582558256
 1 -5.67180024392439  6.67095128952895  2.57845316671667
 1 -10.06184531803180  2.97929858695870 -3.50920417211721
 1 -10.10461125902590  4.60210405450545 -3.02395268596860
 1 -9.37458725852585  4.02267068106811 -5.35604080638064
 1 -7.78644815421542  5.02918266366637 -4.40295025002500
 1 -7.77232708170817  3.18085744454445 -4.63683360816082
 1 -8.26680427002700 -0.95191573447345 -4.73477447574757
 1 -8.22310329332933 -2.72720612571257 -4.25554819181918
 1 -9.39847992749275 -1.58864568796880 -3.51529843654365
 1 -4.26062341974197 -3.92112693929393 -1.22584587148715
 1  2.59726085908591 -6.16245418841884  0.79481543844384
 1  2.19204994839484 -5.28630560666067 -0.55516896649665
 1  3.74350647294729 -4.20123940574057  1.94249925752575
 1  2.68090307700770 -3.53717933903390 -1.55190773177318
 1  3.66605121842184 -2.00799435873587 -1.81038350885088
 1  4.31898407240724 -3.56100983018302 -1.86219514541454
 1  5.09753979487949 -1.32594901890189  0.52990487398740
 1  5.26693522082208 -2.50796242864286  1.64320920122012
 1  6.74288181488149 -3.81361455355536  0.09882776677668
 1  6.47442760316032 -2.63737134613461 -1.10426102160216
 1  7.36244517581758 -0.76241956705671  0.09093633913391
 1  7.66761886478648 -1.96153273637364  1.47594197949795
 1  9.05649975927593 -1.63634190939094 -1.17098043614361
 1  9.03359787848785 -4.11786055745575 -0.29544333673367
 1  10.63971331213121 -3.45256945904590 -0.41715182868287
 1  9.70682974437444 -3.44211530303030  1.18013845654565
 1  9.40139929052905  0.24674040024002  0.13980934473447
 1  9.97204730223022 -1.15484201810181  1.50718025802580
 1  12.01649679097910 -1.81877190909091 -0.03800817401740
 1  11.24959104580458 -0.64601750665067 -1.27174850845085
 1  11.77866890039004  1.32038646784678  0.06404684948495
 1  12.60458528182818  0.06736792819282  1.28308658885889
 1  13.29733653435343  0.43038747104710 -1.77600983968397
 1  14.50944028232823 -1.02516072877288  0.86508218821882
 1  14.12644821582158 -1.63153216951695 -1.10791711321132
 1  15.68171916031603 -0.71648484668467 -0.45809270177018
 1  13.67443563776378  2.67301192029203 -0.45943773147315
 1  14.45678237853785  1.79430972017202  0.86207342124212
 1  16.30237189298930  1.35060367306731 -0.64218070877088
 1  15.45928151155116  1.98757267006701 -2.10746212591259
 1  15.47226863146315  4.21052643064306 -0.78065006310631
 1  16.42529529962997  3.60714735613561  0.49672957335734
 1  18.21118479987999  3.00102159335934 -1.08253733333333
 1  16.51358207860786  4.93383991289129 -3.12697505730573
 1  18.11302722622262  4.00716022932293 -3.29433403850385
 1  16.57895809600960  3.10362143214321 -3.35167320192019
 1  18.21514756195619  4.89296051355136  0.31101276547655
 1  19.10363788608861  5.18133228542854 -1.21895881028103
 1  17.60518206910691  5.97506700980098 -0.42988705000500
 1 -4.83995929732973 -7.89297873097310 -0.02036557425743
 1 -6.44093852415242 -7.12623971057106  0.46982048954895
 1 -4.89663783238324 -6.82749432503250  1.58079253585359
 8 -7.92651024262426  6.78068456925693 -0.30666845084508
 1 -9.27580587768777  6.40771641654165 -1.88824450725073

