%nproc=4
%Mem=2GB
# td=(NStates=1) iop(3/107=0140000000,3/108=0140000000) iop(3/107=0140000000,3/108=0140000000) CAM-B3LYP/6-31G(d,p) 

TD

0 1
12 -6.84209678177818  0.53804294839484  0.12529014851485
 6 -4.42233934043404 -2.08208663046305  0.39780005700570
 6 -4.37770958635864  2.70880251335134  1.12302518411841
 6 -8.87820052475248  3.14875889999000 -0.56806630833083
 6 -9.43961205880588 -1.77268029762976 -0.62509256795680
 7 -4.71700677257726  0.42653205090509  0.59360839293929
 6 -3.90421768736874 -0.85374508130813  0.65679623502350
 6 -2.49849326792679 -0.61114287348735  1.06256831913191
 6 -2.37385735153515  0.96918706750675  1.40323248574857
 6 -3.90553681658166  1.43570365556556  0.97247202190219
 6 -2.09600588628863  1.30923271917192  2.82266682948295
 6 -1.46648539693969 -0.85368793219322 -0.00287896159616
 6  0.00030191189119 -0.85969767636764  0.55075414891489
 6  0.86567764696470 -1.16591382828283 -0.58821699549955
 8  0.78829889798980 -0.70959357185719 -1.73564455465547
 8  1.94935522212221 -1.87397769636964 -0.25706062856286
 7 -6.73442518471847  2.51311168116812  0.37071081898190
 6 -5.56209677057706  3.29030767396740  0.77384368056806
 6 -6.02691690689069  4.60765044984498  0.84873974257426
 6 -7.23115382878288  4.87669375987599  0.29719630293029
 6 -7.67669937383738  3.56510531893189 -0.07908307690769
 6 -5.14756967726773  5.76311374187419  1.48896656465647
 6 -7.98992055335534  6.11942886298630  0.01060058375838
 8 -7.84557847404740  7.30508212481248  0.50371822862286
 7 -8.61540509400940  0.61600245944594 -0.44347699679968
 6 -9.38574224662466  1.84214895019502 -0.70885193749375
 6 -10.84043067336734  1.55528539963996 -0.88809459065907
 6 -11.06494085158516  0.18344924932493 -1.06858771427143
 6 -9.69922158545855 -0.31984014721472 -0.76811888858886
 6 -11.79259603490349  2.58384457755776 -1.38911356215622
 6 -12.07690081058106 -0.46533009530953 -1.60097823152315
 6 -12.08136499859986 -0.71563372857286 -3.16668946364636
 7 -6.87359384228423 -1.47495005630563 -0.10949359385939
 6 -8.04382704430443 -2.31298129482948 -0.43858705670567
 6 -7.64937252235224 -3.83297061946195 -0.31060207030703
 6 -6.12020764196420 -3.75436459735974  0.02974471387139
 6 -5.81292758145815 -2.27182599709971  0.10785696999700
 6 -8.47574609810981 -4.83886126392639 -0.62182499839984
 6 -5.00123632813281 -4.48698449654966  0.27825585128513
 8 -4.89749149784978 -5.73994453275328  0.30743124972497
 6 -3.84696842224222 -3.46410696989699  0.50398504570457
 6 -3.15531904280428 -3.65477165266527  1.97101681468147
 8 -3.83313855395540 -3.97333406820682  3.00164883468347
 8 -2.06673834873487 -3.75584188948895  1.96884682388239
 6 -1.28087660976098 -4.08579366946695  3.09314373957396
 6  3.03330522332233 -2.00383556045605 -1.40145138923892
 6  4.14677844524453 -1.21270827192719 -0.91793732603260
 6  5.01353210861086 -0.68833570497050 -1.85391159275928
 6  4.90712469626963 -1.31015415011501 -3.28182516471647
 6  6.16540036463646  0.25545789288929 -1.44523108160816
 6  7.38272696669667 -0.48700448254825 -1.16182291959196
 6  8.28088064836484  0.50988662326233 -0.47375585608561
 6  9.72180526992699 -0.40771769206921 -0.10172847854785
 6  9.37041455775577 -1.37951676637664  1.23159752855286
 6  11.03302563256326  0.50229508370837  0.32910774917492
 6  12.28326359685969 -0.16330502330233  0.47007531873187
 6  13.46235777837784  0.79097637233723  0.39292219061906
 6  14.87305364056406  0.15466874497450  0.49064372647265
 6  15.13504849294929 -0.53792607310731  1.93256318031803
 6  15.84264389278928  1.10210511251125  0.12660586588659
 6  17.24920439853985  0.55302052645265 -0.30366724062406
 6  18.35355490289029  1.62788998019802 -0.37978812561256
 6  19.82970517161716  1.26850534533453 -0.65955603930393
 6  19.77938774007401  0.62001743204320 -1.97283307450745
 6  21.06331350025003  2.25715713371337 -0.28123321922192
 1 -3.80921155945595  3.63036428742874  1.47825722742274
 1 -9.60082406490649  4.02664174927493 -0.79105273917392
 1 -10.14143663526353 -2.38880928022802 -0.77481030693069
 1 -2.42062457925793 -1.19879749754975  1.99333938223822
 1 -1.91331066966697  1.50991146734673  0.35677213061306
 1 -1.72419380308031  0.55555386978698  3.00415112621262
 1 -1.74121229512951  2.18538711511151  2.94807092489249
 1 -3.18170050255026  1.45729361466147  3.42189805890589
 1 -1.95423444374437 -1.94642591559156 -0.45470325712571
 1 -1.40163533253325 -0.17726919981998 -0.54221401220122
 1  0.34740273857386 -0.03447488078808  1.33639950515051
 1  0.28433471367137 -2.04743107690769  1.12131236333633
 1 -4.27820235063506  5.89924775267527  1.16748170587059
 1 -6.14231451205121  6.46546922282228  1.26590349644965
 1 -4.86622765096510  5.68136709770977  2.52935070737074
 1 -8.72460547464746  5.66067117631763 -0.61036741254125
 1 -11.95697525112511 -1.45996686418642 -1.29867429462946
 1 -13.06289250425042 -0.08661226142614 -1.46284392079208
 1 -12.73371119421942 -1.35551766716672 -3.48105522262226
 1 -11.90218718251825  0.34222164366437 -3.65958812831283
 1 -11.10533735813581 -1.36254957195720 -3.31450805820582
 1 -8.98914809810981 -4.85269182478248 -1.37526975497550
 1 -7.97478269286929 -5.81740175277528 -0.67258691059106
 1 -9.21835911591159 -5.06292825402540  0.17839244874487
 1 -3.14393397479748 -3.65064878977898 -0.25983429022902
 1  3.17949956535654 -3.32519979377938 -1.29946566366637
 1  2.22947723652365 -2.07330324532453 -2.19093932923292
 1  3.95273260096010 -0.71316406480648 -0.14989138753875
 1  3.86707976497650 -1.08965243774377 -4.04039415441544
 1  6.00843442184218 -0.78256693209321 -4.06469769366937
 1  5.07158098549855 -2.48238085238524 -3.52322650645064
 1  6.21334175607561  1.25006034343434 -2.18936155335534
 1  5.72082719211921  0.89895544334433 -0.82022628602860
 1  7.25089626852685 -1.28737693479348 -0.42842112051205
 1  7.81104650305030 -0.86933572387239 -1.87773724962496
 1  8.50020215161516  1.34469506430643 -1.07448023332333
 1  7.88863736183619  1.18373356155616  0.29904561296130
 1  10.10478292539254 -0.85688313201320 -0.84498165576558
 1  8.46584882918292 -1.99453826952695  1.13137149794979
 1  10.43605967536754 -2.07103098429843  1.41335322672267
 1  9.33687689928993 -0.69400062246225  2.15212651775178
 1  10.90242388018802  1.07277003690369 -0.45956312791279
 1  10.73839358595860  1.27714659025902  1.34157803810381
 1  12.44630217241724 -0.85479791929193  1.37311099439944
 1  12.45088724272427 -0.76376459705971 -0.17709070657066
 1  13.63032790279028  1.22226177117712 -0.56802570717072
 1  13.35169721452145  1.69383363466347  1.00260605000500
 1  14.81833325912591 -0.78160567656766 -0.21594978617862
 1  14.79214911481148  0.11190158565857  2.53234600760076
 1  14.49185645914591 -1.23329100100010  2.12145964406441
 1  16.13152018511851 -1.15885946904691  1.85325180288029
 1  15.87122825772577  1.80211020442044 -0.59968994369437
 1  16.07290132273227  1.63799333483348  0.84042236543654
 1  17.33813512861286 -0.06699352875288  0.58550873757376
 1  16.96844436863686 -0.21660349114911 -1.04355573297330
 1  18.12782778987899  2.19721626942694 -0.98720170847085
 1  18.15204520062007  2.07003090999100  0.56528319881988
 1  20.08253081428143  0.47896074227423  0.07688103890389
 1  19.34071238923892  1.26729177877788 -2.61667379257926
 1  20.45542983298330  0.70076827502750 -2.27721185458546
 1  18.95508823582358 -0.14450216861686 -2.39004707940794
 1  21.36142292089209  2.09230880998100  0.76182693629363
 1  21.89908764906491  1.76365294799480 -0.68580129512951
 1  20.82434908780878  3.33402088928893 -0.69721451775178
 1 -0.24986061116112 -4.92838558795879  2.89606795479548
 1 -2.03207288828883 -4.83569084278428  3.76418705530553
 1 -0.85854986828683 -3.25635411251125  3.65255940914091
 8 -11.63012138643864  3.82955775497550 -1.03850566426643
 1 -12.83457396889689  1.87065830593059 -1.73185379037904

