%nproc=4
%Mem=4GB
# td=(NStates=1) iop(3/107=0140000000,3/108=0140000000) iop(3/107=0140000000,3/108=0140000000) CAM-B3LYP/6-31G(d,p) 

TD

0 1
12 -5.64739624622462  1.22467734203420  0.19554816001600
 6 -5.06027641484148 -2.24864332763276 -0.29724659145915
 6 -3.32787157625763  1.17853813861386  2.75003037633763
 6 -6.16810560626063  4.61308457265727  0.58766897569757
 6 -8.01436720382038  1.21852270297030 -2.26606427992799
 7 -4.36930118341834 -0.26876506830683  1.07926926572657
 6 -4.31543507100710 -1.60500420202020  0.70304265386539
 6 -3.27453057755776 -2.34356765956596  1.56743110681068
 6 -2.95540871187119 -1.35019791069107  2.63416997309731
 6 -3.59577700510051 -0.01344397209721  2.14651923712371
 6 -3.55459849924992 -1.68927236863686  3.92864556395640
 6 -1.97733292649265 -2.64057146644664  0.76457176267627
 6 -0.95886753025303 -3.55897347794779  1.36416000400040
 6  0.18599369986999 -3.82655649634963  0.40803899859986
 8  0.43852391669167 -3.28915622922292 -0.65430166436644
 8  1.03257010271027 -4.67364698199820  1.09018362566257
 7 -4.90310112641264  2.62844222112211  1.43743397509751
 6 -3.94518660846085  2.40424784648465  2.39875047834783
 6 -3.66201570527053  3.67439594179418  3.13805436163616
 6 -4.46120667336734  4.56757828612861  2.59371864316432
 6 -5.26458256245625  4.03695179037904  1.54615070737074
 6 -2.79998536163616  3.75727310311031  4.37713190259026
 6 -4.49276580718072  6.08229565006501  2.80540004480448
 8 -3.84685473347335  6.58033592159216  3.75405930583058
 7 -6.81605540544054  2.65544544034403 -0.72673432973297
 6 -6.91520423522352  3.94796441364136 -0.42987467616762
 6 -7.90629581598160  4.58982570737074 -1.27871198069807
 6 -8.47138659195920  3.57557448734873 -2.14879382378238
 6 -7.80465935643564  2.39462547134713 -1.70062600910091
 6 -8.31655464636464  5.99158906830683 -1.16794630343034
 6 -9.46505086838684  3.73131352955296 -3.21994662746275
 6 -8.77650910461046  3.87101524772477 -4.60212661666167
 7 -6.39954837383738 -0.18100311801180 -1.05909100110011
 6 -7.38029755935594 -0.06138220682068 -2.06106031673167
 6 -7.69383689088909 -1.39228093169317 -2.62738526112611
 6 -6.69360890969097 -2.21227079887989 -2.03643980968097
 6 -6.01306972237224 -1.50491405650565 -1.07255338573857
 6 -8.77743320112011 -1.72796292229223 -3.59049594579458
 6 -6.18201186828683 -3.58640422432243 -1.91281483658366
 8 -6.55704009950995 -4.53927162556256 -2.50097636273627
 6 -5.10102866496650 -3.53533158575858 -0.78490080988099
 6 -5.31863934133413 -4.72699814091409  0.20546421822182
 8 -5.66848261986199 -4.58373738183818  1.35599196259626
 8 -5.05985568376838 -5.89553074947495 -0.39284242884288
 6 -5.34691225542554 -6.95589744304430  0.60833266306631
 6  2.23656462966297 -5.03849496969697  0.37063101750175
 6  3.42194672967297 -4.16327648854885  0.87505540534053
 6  3.94283367356736 -3.18816168626863  0.02798643364336
 6  3.80298463736374 -3.00250519181918 -1.44147365186519
 6  5.08900532633263 -2.36304135173517  0.65357915671567
 6  6.47173204450445 -2.70443336853685  0.06517798519852
 6  7.63780910451045 -1.82835219071907  0.57462315281528
 6  8.97220804210421 -1.99007384098410 -0.20504828732873
 6  9.44872125382538 -3.42786342674267  0.05452199449945
 6  10.02988356745675 -0.87934817221722  0.36324884038404
 6  11.31393869626963 -0.77645725262526 -0.49726849304930
 6  12.21793948254826  0.29293392089209  0.19011585918592
 6  13.55198765456546  0.50544541444144 -0.58474323752375
 6  14.49795809480948 -0.64132353495350 -0.54201835273527
 6  14.24212015161516  1.82158833043304 -0.07376663146315
 6  15.43489768016802  2.22987101530153 -0.88982397739774
 6  16.08542112651265  3.63104785758576 -0.56678729192919
 6  17.47458270737074  3.77613545514551 -1.15116905210521
 6  17.39255184488449  3.98682357405741 -2.67716994119412
 6  18.13244265036504  5.04961022632263 -0.50630008890889
 1 -2.56365208800880  1.23508778417842  3.48979944834483
 1 -6.37670564936494  5.72658803920392  0.86703569526953
 1 -8.85343575077508  1.21633193609361 -2.89110458925893
 1 -3.63025409020902 -3.37577289268927  1.79885794659466
 1 -1.97888501240124 -1.16704436603660  2.51488276437644
 1 -3.19498927802780 -2.54986814801480  4.54322786678668
 1 -3.49650044274427 -0.89688959335934  4.78828085788579
 1 -4.63592610431043 -1.77302638353835  3.66540049054906
 1 -2.19097441114111 -3.45295481278128 -0.09785040884088
 1 -1.40414824722472 -1.83694281058106  0.28999712131213
 1 -0.63108854235424 -3.08425972157216  2.32550676937694
 1 -1.48377309890989 -4.47666479767977  1.78850064806481
 1 -1.73201331513151  3.20187971237124  4.45626153585358
 1 -2.74492548264826  4.95870307630763  4.57978423612361
 1 -3.40936393139314  3.21362235973597  5.17898290429043
 1 -5.10580364426443  6.51111530593059  2.15230055145515
 1 -9.99478861236124  2.80783144024402 -3.15956920862086
 1 -10.24718551645165  4.46446029012901 -2.90429071977198
 1 -9.40943074287429  4.23623203720372 -5.33284848714871
 1 -7.99459896929693  4.68036778217822 -4.62300225522552
 1 -8.17073692269227  2.81619097789779 -4.79379930473047
 1 -8.52818040764076 -0.84289483238324 -4.33165416371637
 1 -8.64483546654665 -2.70501390649065 -4.01307394439444
 1 -9.86124620412041 -1.95464228762876 -3.02120902760276
 1 -4.14143150055005 -3.68790361696170 -1.25885917281728
 1  2.19930106310631 -6.10408835183518  0.72705866276628
 1  2.08920966436644 -4.76622359845985 -0.69636308590859
 1  3.68638076037604 -4.03574285608561  2.03290829842984
 1  2.73885887258726 -2.99834545564556 -1.72238477947795
 1  4.03657827112711 -1.94729828912891 -1.98757122762276
 1  4.25642781678168 -3.82134586378638 -1.68521744764476
 1  5.01742178307831 -1.25546197019702  0.62677456095610
 1  4.91423995129513 -2.45972760516052  1.73252813311331
 1  6.68696622332233 -3.77030022212221  0.45709359335934
 1  6.49820998139814 -2.55100270927093 -1.08687928342834
 1  7.27237616891689 -0.85305863096310  0.51514876037604
 1  7.69182128502850 -2.09086566966697  1.64154854015402
 1  8.86967107640764 -1.94847312251225 -1.35756909500950
 1  8.67555207390739 -3.90414918631863 -0.59338313071307
 1  10.52929227002700 -3.65164936703670 -0.09117923142314
 1  9.22102116351635 -3.56958805030503  1.30903134583458
 1  9.42601175177518  0.00937666386639  0.26168153195320
 1  10.25320541804180 -1.01300783468347  1.46764630463046
 1  11.85039018031803 -1.85514554645465 -0.56284065726573
 1  11.01115720242024 -0.14531743664366 -1.49189052265227
 1  11.52912394589459  1.19739416861686  0.43993443824382
 1  12.49971479477948 -0.06874568316832  1.25793407360736
 1  13.23732053275327  0.67972240454045 -1.65391763046305
 1  14.74909424772477 -0.81889010171017  0.50100578057806
 1  13.99647521852185 -1.56229524582458 -0.88005432693269
 1  15.34466545494550 -0.54320751895190 -1.05127201970197
 1  13.33251144534453  2.57564218331833  0.15722393469347
 1  14.46861356165617  1.78339862906291  1.04955216911691
 1  16.02597425322532  1.46571518421842 -0.71280777147715
 1  15.43510909430943  2.37057096989699 -1.97061844154415
 1  15.42665407000700  4.33322870087009 -0.97950994909491
 1  16.10802357245725  3.76034267566757  0.51575147554755
 1  18.05696937833783  3.03834532573257 -0.72958203780378
 1  16.79565028542854  4.80488701760176 -3.18490084988499
 1  18.28465438893889  4.15461497479748 -3.18419302440244
 1  17.13147334753475  3.22062313231323 -3.14816285088509
 1  18.08833488068807  4.94560577807781  0.61742340654065
 1  19.19923744604461  5.32597674987499 -0.60255717011701
 1  17.51458300920092  5.87881738483848 -0.83214727602760
 1 -5.49698499989999 -8.00470990409041  0.03612007430743
 1 -6.33182761306131 -6.58075516211621  1.37379088658866
 1 -4.30038820742074 -6.98637021262126  1.29219367596760
 8 -7.81416900850085  6.87854435523552 -0.47529531353135
 1 -9.27109540664066  6.22274791969197 -1.63907959075908

