%nproc=4
%Mem=2GB
# td=(NStates=1) iop(3/107=0140000000,3/108=0140000000) iop(3/107=0140000000,3/108=0140000000) CAM-B3LYP/6-31G(d,p) 

TD

0 1
12 -6.79753232533253  0.59604874897490  0.16548416791679
 6 -4.59147625412541 -2.00829925172517  0.29935021202120
 6 -4.26352816821682  2.95639727282728  0.91062394399440
 6 -8.94038674337434  3.10483450755075 -0.26732623432343
 6 -9.19982808040804 -1.74439746934693 -0.67779783848385
 7 -4.71860693259326  0.43701309900990  0.47842687478748
 6 -3.92731999759976 -0.75625533233323  0.60311086648665
 6 -2.56580999959996 -0.57775953515352  0.89830189248925
 6 -2.48050801660166  1.09778992779278  1.25119728222822
 6 -3.92764902780278  1.51340142534253  0.85728050275027
 6 -2.17544383008301  1.21314311021102  2.66458102090209
 6 -1.67720646904691 -0.94137670107011 -0.14920359405941
 6 -0.22921103940394 -1.29532123872387  0.42024109760976
 6  0.82630370957096 -1.41016825372537 -0.55869404320432
 8  0.79113918201820 -0.81941455395540 -1.68493948414841
 8  1.81176146274627 -2.30977127572757 -0.17295221772177
 7 -6.60274201640164  2.58759912991299  0.25213896179618
 6 -5.46775733663366  3.19779842304230  0.49426572277228
 6 -5.84482869806981  4.73307299209921  0.58660352895289
 6 -7.00282099549955  4.82896898739874  0.25718230153015
 6 -7.63184488838884  3.50989979837984  0.03911874327433
 6 -4.78669358965897  5.83947137763776  0.92076974497450
 6 -7.86681824312431  6.16693361346135 -0.07115759205921
 8 -7.42106602280228  7.16323794039404  0.35910376717672
 7 -8.75022857635764  0.72157301650165 -0.36505915501550
 6 -9.51191486388639  1.84428916421642 -0.42305335763576
 6 -10.76415304560456  1.57312718381838 -0.83906968816882
 6 -11.01771612911291  0.24159506390639 -0.85059591509151
 6 -9.65868753205321 -0.34339250245024 -0.67928000470047
 6 -11.80532730803080  2.54790098319832 -1.03071772257226
 6 -12.15085820632063 -0.54312787508751 -1.29140727442744
 6 -12.19577643974397 -0.70716288148815 -2.72457525222522
 7 -6.97432391529153 -1.37101966326633 -0.09890253475348
 6 -8.07697035863586 -2.37731772847285 -0.31523472147215
 6 -7.65716330143014 -3.59884720712071 -0.35250626072607
 6 -6.30295591679168 -3.63141230213021  0.07712945234523
 6 -5.85325161386139 -2.16975579007901  0.03919010331033
 6 -8.52101062456246 -4.73441081888189 -0.62205502140214
 6 -5.08429463396340 -4.48132393049305  0.08829685538554
 8 -4.76077782648265 -5.67229776807681  0.11819232583258
 6 -4.00314403980398 -3.46785734493449  0.38999364656466
 6 -3.45406891779178 -3.70178635413541  1.68718843184318
 8 -3.94266950705070 -3.83284001880188  2.78665733553355
 8 -1.93246492139214 -3.91771807710771  1.58443838303830
 6 -1.26334485658566 -4.13451854195420  2.70700512571257
 6  3.06185807860786 -2.45068024492449 -1.10986223032303
 6  3.97458122552255 -1.33615061616162 -0.71419695199520
 6  4.87928868426843 -0.88301517291729 -1.50287648924893
 6  5.21223520732073 -1.53138627332733 -2.95910289248925
 6  5.95532935753575  0.04978732583258 -1.10458701720172
 6  7.35624431843184 -0.71958774087409 -0.83999073637364
 6  8.48964152445244  0.22586822142214 -0.04889336983698
 6  9.90588367776778 -0.36884380468047 -0.09769807550755
 6  9.73326084238424 -1.45476429112911  0.96795116391639
 6  10.89841217121712  0.67762261646165  0.32564740314031
 6  12.35641091159116 -0.05589428222822  0.30744905610561
 6  13.46471801440144  0.98816609130913  0.31844474287429
 6  14.90730706590659  0.34366764486449  0.37970263236324
 6  15.15376036413641 -0.16493877437744  1.85637556155616
 6  15.90325995439544  1.29357425942594  0.01369457475748
 6  17.29673915201520  0.75365058945895 -0.11905877977798
 6  18.44909445684569  1.82075926712671 -0.32572271907191
 6  19.72693489458946  1.32504099889989 -0.45215529922992
 6  19.78945874717472  0.63354878517852 -1.76857264846485
 6  20.68862603150315  2.28727014501450 -0.28940403630363
 1 -3.58229886818682  3.72949420042004  1.35837523922392
 1 -9.60437441994199  4.20807989308931 -0.33276691059106
 1 -10.27463995559556 -2.43144354365437 -1.13163598949895
 1 -2.21643416021602 -1.02939055685569  1.85944599289929
 1 -1.90702004060406  1.57292776897690  0.55654210761076
 1 -0.98065944964496  0.91557987238724  2.88202891399140
 1 -2.08201637553755  2.14305288168817  3.10630674847485
 1 -2.72634496699670  0.41425931123112  3.40717658675868
 1 -1.83400242054205 -1.71908318131813 -0.96842462926293
 1 -1.54759992899290 -0.11586305920592 -0.94950474127413
 1 -0.02277427912791 -0.76966840014001  1.20098596379638
 1 -0.51748546834683 -2.04705103890389  1.14098433053305
 1 -4.01430596099610  6.16270409830983  0.20802576027603
 1 -5.41749202980298  6.86266894279428  1.03679058515852
 1 -4.06972800100010  5.74942390339034  2.06505427772777
 1 -8.91946496059606  6.20104521372137 -0.64150052585258
 1 -12.25060461406141 -1.36612748024802 -0.58978340554055
 1 -13.09162537753775  0.03664006380638 -0.70548818521852
 1 -12.89562738583858 -0.95278739413941 -3.02121923902390
 1 -12.04633159695970  0.16237365886589 -3.40100226972697
 1 -11.41890871527153 -1.56437975497550 -3.06048265566557
 1 -9.03007219051905 -4.66079263486349 -1.71454368236824
 1 -8.28884409900990 -5.55652566516652 -0.81235088698870
 1 -9.20372765276528 -4.91304326552655  0.18473308280828
 1 -3.10761034243424 -3.58171189608961 -0.07824613141314
 1  3.13792540794079 -3.64518179197920 -1.08551426852685
 1  2.82500678947895 -2.49564547954795 -1.93411364666467
 1  3.76967429512951 -1.05912866126613  0.36767036863686
 1  4.14869792679268 -1.07221069356936 -3.40256037103710
 1  6.23272685108511 -1.07788646404640 -3.31076230013001
 1  5.54910873827383 -2.44271688598860 -2.84001818561856
 1  6.09983040494049  1.06799213661366 -1.77458007520752
 1  5.40748585798580  0.40822637043704 -0.04466873027303
 1  7.17220839973997 -1.61385958305831  0.05488721032103
 1  8.07046244464446 -1.08838762906291 -1.97446692259226
 1  8.34081621302130  1.14905550035003 -0.83911669696970
 1  8.45518401650165  0.67067225542554  1.05745145354536
 1  9.84730717781778 -0.81681912561256 -1.08499565716572
 1  8.89200144444444 -1.99129794549455  0.91579994079408
 1  10.41196726612661 -2.29254313551355  0.99309120052005
 1  9.73899711131113 -0.84191541394139  1.93540484558456
 1  10.89104274207421  1.45740850075008 -0.38511568316832
 1  10.79188893549355  1.26717559315932  1.20430431073107
 1  12.40298784098410 -0.34865730523052  1.34322800610061
 1  12.43233538753876 -0.99042726332633 -0.34267726522652
 1  13.43254812481248  1.71350089508951 -0.26964586918692
 1  13.38459050385038  1.31623587488749  1.03661945134513
 1  14.54782620842084 -0.26166368236824 -0.23545173637364
 1  15.12303220312031  0.57661805730573  2.75391816481648
 1  14.67383465696569 -0.88178585048505  1.89434693279328
 1  16.35437247034703 -0.19322290539054  1.98313479117912
 1  15.68137927282728  1.62685267866787 -1.21420139483948
 1  15.61536556915691  2.09133866936694  0.59698802200220
 1  17.56251756685668  0.05766893749375  0.94798498519852
 1  17.46793431763176 -0.09048087888789 -1.06016739413941
 1  18.07654266136614  2.47497404520452 -1.20219320762076
 1  18.37543753985399  2.40691459835984  0.46122279277928
 1  19.90807336853686  0.75348819501950  0.36760011081108
 1  19.66017433543354  1.43697874747475 -2.53451557675768
 1  20.69420371037103  0.38411660986099 -1.62559669306931
 1  19.03191591859186  0.02870515211521 -1.85882395709571
 1  20.88765554415441  3.02384196329633  0.78426918051805
 1  21.61841958225823  2.06001258395840 -0.48110082508251
 1  20.47213386628663  2.98585607280728 -1.01140593689369
 1 -0.20399602470247 -3.68649139853985  2.10689903790379
 1 -1.33961364236424 -5.26975424912491  3.08129876647665
 1 -1.53831784508451 -3.95304378147815  3.70057421062106
 8 -11.73157153145315  3.78542334153415 -0.82511432513251
 1 -12.96556706820682  2.29586082618262 -1.36900750575057

