%nproc=4
%Mem=2GB
# td=(NStates=1) iop(3/107=0140000000,3/108=0140000000) iop(3/107=0140000000,3/108=0140000000) CAM-B3LYP/6-31G(d,p) 

TD

0 1
12 -6.73174574667467  0.62152129622962  0.16124374387439
 6 -4.56201330783078 -2.06386480828083  0.50527080408041
 6 -4.35448726412641  2.64275590869087  1.11925480708071
 6 -8.94692739743975  3.18981300540054 -0.42117161886189
 6 -9.23808190579058 -1.72485551515151 -0.69431949064906
 7 -4.82699777167717  0.38546794449445  0.65464449654966
 6 -4.05508277387739 -0.85421512831283  0.71905246064606
 6 -2.74726814541454 -0.46978873807381  1.13848591089109
 6 -2.63185315111511  0.91056120492049  1.40365252775277
 6 -3.93707997089709  1.47497758295830  1.10281505620562
 6 -2.41856814251425  1.21335313121312  2.91805636843684
 6 -1.66098484688469 -0.88987155055506 -0.10838951265127
 6 -0.15929404770477 -0.85825753235324  0.49257833133313
 6  0.83772485168517 -1.02287952485248 -0.60669884368437
 8  1.00664073217322 -0.23796640914092 -1.56819780998100
 8  1.74207449404941 -1.91964226282628 -0.25581050355036
 7 -6.51249299149915  2.57687805780578  0.30823457135714
 6 -5.55791635253525  3.32301094429443  0.76370266646665
 6 -6.02742695789579  4.79938962376238  0.72886775537554
 6 -7.19099981338134  4.97806389688969  0.42937952125213
 6 -7.75575727962796  3.51676048444845 -0.01918708730873
 6 -5.03094801510151  5.91858928942894  1.19167683568357
 6 -8.08196975827583  6.15494241434143  0.17114663836384
 8 -7.56829074527453  7.26148776537654  0.51297915471547
 7 -8.80806435993599  0.66795765496550 -0.23257590669067
 6 -9.54672834523452  1.81278601390139 -0.45938699099910
 6 -10.87656428672867  1.53275314641464 -0.77378315951595
 6 -10.98038239573957  0.12591349574958 -0.95284614011401
 6 -9.73327499079908 -0.35551371457146 -0.47813989068907
 6 -11.89530630593059  2.55895208830883 -1.32787743854385
 6 -12.32373549404941 -0.59573313561356 -1.33743187688769
 6 -12.54415127722772 -0.78312047724773 -2.80221301600160
 7 -6.93285976887689 -1.37984054535454 -0.08663130763076
 6 -8.09454211581158 -2.32590258695870 -0.51023422142214
 6 -7.51429901500150 -3.64670199259926 -0.50868187828783
 6 -6.18167378857886 -3.63999316021602 -0.22382064266427
 6 -5.83495978467847 -2.21604041854185  0.10996718101810
 6 -8.16000452395240 -4.90707808560856 -0.85838865476548
 6 -5.07472367686769 -4.51939773787379  0.02539056475648
 8 -4.79055080378038 -5.62747328562856 -0.06506600000000
 6 -3.94032775817582 -3.43040359955996  0.51229587678768
 6 -3.29491300220022 -3.81149732523252  1.86649636263626
 8 -3.86977221732173 -4.30641737653765  2.87307597739774
 8 -1.85472714761476 -3.73543984928493  1.63832377157716
 6 -1.03132165426543 -4.02256734683468  2.72285671087109
 6  2.89891178397840 -2.15261043794379 -1.18103934803480
 6  4.02813658105811 -1.23450045114511 -0.93716924922492
 6  5.07120787618762 -1.02547941934193 -1.70963716531653
 6  5.17366134993499 -1.46936007070707 -3.04154113631363
 6  6.36991081568157 -0.09445709860986 -1.18722528102810
 6  7.43477217121712 -0.73742952505251 -0.89158589588959
 6  8.52332489278928  0.13265890049005 -0.21593007350735
 6  9.92890597999800 -0.57978489878988  0.01699339363936
 6  9.69055657195720 -1.20646946164616  1.45335970477048
 6  10.88570090009001  0.58892374657466 -0.01947710931093
 6  12.26214148464847 -0.13040173297330  0.12393070427043
 6  13.51271281388139  0.88694596929693  0.32490538893889
 6  14.89577591279128  0.25664894299430  0.40154481658166
 6  15.12892788088809 -0.16806908740874  1.91551147514752
 6  15.93712334073408  1.38947384938494 -0.02275907060706
 6  17.38968844694470  0.80402562696270  0.09050217631763
 6  18.41120066746675  1.86812400360036 -0.54286443324332
 6  19.89142134323432  1.18041653645365 -0.61576165986599
 6  20.15632543384339 -0.04930950065007 -1.56623241444144
 6  20.67700486938694  2.40372179017902 -0.82747784368437
 1 -3.41289192749275  3.30017126812681  1.41290069176918
 1 -9.58477245974597  3.84382346744675 -0.46653028692869
 1 -10.15857834943494 -2.55658605790579 -0.85353817971797
 1 -2.83513603040304 -1.06978459625963  1.99957000530053
 1 -1.84318365696570  1.31128160436044  0.60184663806381
 1 -1.52530391409141  0.50764907930793  3.37079779087909
 1 -2.42466063996400  2.34573314971497  3.18519463726373
 1 -3.34639697219722  1.11148903420342  3.53331920102010
 1 -1.99721874217422 -2.14520579357936 -0.60463825062506
 1 -1.74524969396940 -0.00611208410841 -0.86015580638064
 1  0.23335133343334  0.12887145384539  0.80764662986299
 1 -0.20539425922592 -1.79685601940194  1.38923915601560
 1 -3.81299582998300  5.96292412031203  0.77245220292029
 1 -5.51437171777178  6.94991766766677  0.66001290739074
 1 -5.12861388958896  5.69266822782278  2.39635740804080
 1 -9.06810982508251  6.10096520572057 -0.28651502730273
 1 -12.39233878747875 -1.51354222172217 -0.38251267846785
 1 -13.12340855585559  0.34516091589159 -1.13418105450545
 1 -13.65414323742374 -1.10395251065107 -3.15324244134413
 1 -12.43746070987099  0.13963138463846 -3.75189735923592
 1 -11.57388421282128 -1.56203952095209 -2.98653526092609
 1 -8.72056123942394 -4.74522107770777 -1.60013224122412
 1 -7.87190240484048 -5.76622663526353 -0.80738038993899
 1 -9.00344762476248 -5.03234519571957 -0.27636302680268
 1 -2.96260584198420 -3.41916564146415 -0.08617692449245
 1  3.23903551895190 -3.39803707750775 -1.00581629872987
 1  2.47283157195720 -2.13653956895690 -2.04300453575357
 1  3.89434676237624 -1.10912366076608  0.13796739833983
 1  4.08902195919592 -1.40249372187219 -3.63921403640364
 1  5.78956253465346 -0.65015369076908 -3.63556478037804
 1  5.38384221162116 -2.77623023732373 -2.82969715351535
 1  6.51357177907791  0.44697003440344 -1.81923454065406
 1  6.20048515791579  0.32485803360336 -0.63670793419342
 1  7.31658283718372 -1.34949314641464 -0.23167144554455
 1  7.55664106250625 -1.42428121842184 -1.54927440334033
 1  8.73486561796179  0.66018661346135 -1.28079086438644
 1  8.21439993809381  0.57015220342034  0.56151185958596
 1  9.98536098319832 -1.33886132983298 -0.76222337993799
 1  8.70448269256926 -1.68846766246625  1.19618797959796
 1  10.60839690909091 -2.35055893709371  1.38233012441244
 1  9.84520773237324 -0.64066528892889  2.25491679677968
 1  10.95789942774277  1.16535929582958 -0.95074224582458
 1  11.04254400100010  1.22237111271127  0.90395427572757
 1  12.20081762396240 -0.74980742024202  1.27833151645165
 1  12.62416457045705 -1.18543676427643 -0.64407740524052
 1  13.22873774377438  1.51316086108611 -0.35406431103110
 1  13.29784182898290  1.57770202150215  1.18085387478748
 1  15.27926935273527 -0.68377589358936 -0.04172236343634
 1  15.47091699159916  0.92260265576558  2.35339811281128
 1  14.11685895939594 -0.60085775767577  2.69424692279228
 1  15.77711474457446 -0.96206979007901  1.74823130083008
 1  15.54250538543854  1.46994698809881 -0.99354932963296
 1  15.93073710631063  2.27329686518652  0.59534785798580
 1  17.77962927802780  0.82015518611861  1.37702788948895
 1  17.51133865806581 -0.27038886968697 -0.36191756915692
 1  18.06254126122612  1.68055460326033 -1.72361534983498
 1  18.26579657575758  3.06055996289629  0.03823049354935
 1  20.05663822502251  1.00198304450445  0.74228757955796
 1  20.11421973997400  0.04529957955796 -3.01617374257426
 1  21.31288557855785 -0.49106090789079 -1.43835796919692
 1  19.53339606660666 -1.17011472987299 -1.16871494619462
 1  20.33972075067507  3.28563814291429  0.15275602920292
 1  21.82429016931693  1.84424100680068 -0.77044975997600
 1  20.62295894879488  2.73518100530053 -2.17623241954196
 1 -0.23788941404140 -4.00794354375438  2.08755710371037
 1 -1.45193487448745 -4.97919519321932  2.85391602820282
 1 -1.25686970027003 -3.23890236733673  3.76199035223522
 8 -11.60998937323732  3.78914371357136 -1.36788860256026
 1 -13.02803331483148  1.92384362446245 -1.37812841784178

