%nproc=4
%Mem=2GB
# td=(NStates=1) iop(3/107=0140000000,3/108=0140000000) iop(3/107=0140000000,3/108=0140000000) CAM-B3LYP/6-31G(d,p) 

TD

0 1
12 -6.64503707580758  0.54915405950595  0.00897851735174
 6 -4.61624873137314 -2.07085550735074  0.30441071807181
 6 -4.00587240264026  2.73743537663766  0.71849473107311
 6 -8.75797850255026  3.19672369646965 -0.13704320602060
 6 -9.39765786338634 -1.66950998059806 -0.80962102080208
 7 -4.58650372227223  0.31163056075608  0.46029506160616
 6 -3.84772203780378 -0.83450315711571  0.57648820422042
 6 -2.46100951955196 -0.64602636183618  0.94685674797480
 6 -2.33768373417342  0.94744489328933  1.19227138963896
 6 -3.88733499639964  1.46417650285029  0.72723749844985
 6 -2.34671095679568  1.31630342624262  2.60003456625663
 6 -1.48599734813481 -1.28649121252125 -0.20469914361436
 6 -0.10452857115712 -1.47817952455245  0.34170324382438
 6  0.93891497069707 -1.52813004990499 -0.68659683348335
 8  1.02111217931793 -1.00617322982298 -1.72473346354635
 8  1.95446573317332 -2.41796209480948 -0.19083400590059
 7 -6.42118386058606  2.62215258525853  0.29345309320932
 6 -5.34184474537454  3.37212585578558  0.46398269446945
 6 -5.76369058425843  4.81559124392439  0.50576544514451
 6 -7.08979969336934  4.86806289678968  0.28810539383938
 6 -7.58046975087509  3.54715352375238  0.27306213761376
 6 -4.81972689298930  5.76173360386039  0.94805247324732
 6 -8.03402496379638  6.14239115921592  0.31235075877588
 8 -7.73397731393139  7.24568618521852  0.65999385618562
 7 -8.74994854835484  0.75150600980098 -0.32062471157116
 6 -9.39401307370737  1.91170590589059 -0.41705275757576
 6 -10.83436006630663  1.76313618471847 -0.86434221542154
 6 -10.91739609710971  0.24828573297330 -0.89970082558256
 6 -9.60003166646665 -0.29188735193519 -0.63812588928893
 6 -11.64691146644664  2.75724191729173 -1.09059371017102
 6 -12.21654477497750 -0.22644620692069 -1.33350148384839
 6 -12.14250111221122 -0.92886505170517 -2.84961775647565
 7 -6.84218070097010 -1.41481404270427 -0.32665531003100
 6 -8.10269293089309 -2.15737573427343 -0.45040823882388
 6 -7.74489207430743 -3.59930725312531 -0.50434144424442
 6 -6.36661228242824 -3.53793295419542 -0.15010327092709
 6 -5.79007529622962 -2.32895170967097 -0.16023983968397
 6 -8.56866539003900 -4.78779615741574 -0.84944776067607
 6 -5.23283948844885 -4.49456525462546  0.03319134483448
 8 -5.14276602530253 -5.58617915621562 -0.16253574697470
 6 -3.93878760416042 -3.36751731093109  0.42861750895090
 6 -3.45219873077308 -3.69512568806881  1.81413112611261
 8 -4.14993023312331 -3.99128586338634  2.83310197999800
 8 -1.83284495939594 -3.74152045734574  1.78185812501250
 6 -1.30371889398940 -4.07849293939394  3.01038546374637
 6  3.03953584638464 -2.54934011091109 -1.09239048314831
 6  4.14804857225723 -1.53273027412741 -0.31571710401040
 6  5.12759351475147 -1.20975784718472 -1.28755495709571
 6  5.39505348914892 -1.48663179787979 -2.64351133333333
 6  5.92538636323632  0.08135048214821 -0.71769832833283
 6  7.36115480948095 -0.69755553765377 -0.40400713801380
 6  8.35117767806781  0.31347698229823 -0.03984246474647
 6  9.68387147654765 -0.45338225852585  0.31810350465047
 6  9.73110062636264 -1.20257907260726  1.36776114491449
 6  10.84769709970997  0.61557641184118  0.34179901830183
 6  12.07127239773977 -0.04130282308231  0.42199051025103
 6  13.32776431903190  0.94876215091509  0.26530942934293
 6  14.80520685588559  0.42337561566157  0.48771343344334
 6  14.99768475657566 -0.10369264976498  1.74549447344734
 6  15.81264089248925  1.52312721472147  0.04019722502250
 6  17.25229470757075  0.84452967736774 -0.05026190009001
 6  18.34346389378938  1.77725491669167 -0.56348649544954
 6  19.67113931503150  1.35124361916192 -0.88713879757976
 6  19.58857865916592  0.43909934023402 -1.97639343054305
 6  20.54302147104710  2.53760517851785 -1.02815791169117
 1 -3.32305294359436  3.48602985398540  0.84610401210121
 1 -9.76478046054605  3.99094817991799 -0.08293192709271
 1 -10.16307879947995 -2.24011441074107 -1.29531235713571
 1 -2.21458397519752 -1.16425404320432  1.89696974527453
 1 -1.97915725432543  1.56182665886589  0.34962141554155
 1 -1.35059644334433  0.94503281768177  2.98712942404240
 1 -2.58713688758876  2.55856443284328  2.66835295309531
 1 -3.25097743024302  0.92322020732073  3.19790565966597
 1 -2.12480150045005 -2.03610488348835 -0.65255304210421
 1 -1.40542571157116 -0.41409288218822 -0.56171596239624
 1  0.68893689198920 -0.48481991529153  0.77529339453945
 1 -0.43765748554855 -2.27232356615662  1.13802403450345
 1 -3.88478300870087  5.73558138603860  0.51262622032203
 1 -5.26119640024002  6.79805248114811  0.91675858195820
 1 -4.28887991619162  5.78066702770277  1.94667243954395
 1 -8.82635564966497  6.17594270347035 -0.20498687448745
 1 -12.63094264786479 -1.08199906740674 -0.69383381058106
 1 -13.01041725672567  0.65080147994799 -1.25154279067907
 1 -13.06006382948295 -1.83985610101010 -3.14922203930393
 1 -12.12289925372537  0.01847926942694 -3.57272944244424
 1 -11.11893871827183 -1.61331464846485 -3.07253386078608
 1 -8.68057724102410 -4.86910346594659 -2.02966519451945
 1 -8.49499471407141 -5.97366737933793 -0.39749940184018
 1 -9.61027830783078 -4.57004896609661 -0.52245763626363
 1 -3.27697727912791 -3.54649837473747 -0.31706001280128
 1  3.17994961036104 -3.70862813661366 -1.07368308540854
 1  2.80628491729173 -2.21072698769877 -2.39874010931093
 1  3.88339566726673 -1.29124187258726  0.81324492609261
 1  4.85695875287529 -0.83700717321732 -3.25781589658966
 1  6.42835641404140 -1.43103177857786 -2.87481870577058
 1  5.23145697309731 -2.64296691099110 -2.82188637243724
 1  6.21285170707071  0.61793713111311 -1.88638125532553
 1  5.77702281168117  0.83714926272627  0.03223896049605
 1  7.08944012291229 -1.41021921902190  0.47381910351035
 1  7.76621201960196 -1.11559034933493 -1.32121159705971
 1  8.49482161356135  1.07561815661566 -0.97362014731473
 1  7.89887838593859  1.16256144434443  0.77840354875487
 1  9.92041448854885 -0.93840128382838 -0.57307446504650
 1  8.80708295259526 -2.05466428212821  1.18239660046005
 1  10.70795686508651 -1.53438731993199  1.52022391379138
 1  9.88892210381038 -0.49153037543754  2.26276758185819
 1  11.08797243504350  1.26464922482248 -0.60390756235624
 1  10.42296204280428  1.21469034463446  1.29707358765877
 1  12.20796833903390 -0.45415785528553  1.03852753605360
 1  12.08280043404340 -0.55752397299730 -0.15431842934293
 1  13.38947381738174  1.03143268826883 -1.05460436503650
 1  13.37602964776478  1.71593584488449  0.82683847324732
 1  14.72848427422742 -0.57459497549755 -0.31620981218122
 1  15.10365026492649  0.26451684718472  2.57091986498650
 1  14.08952622612261 -0.75404307620762  1.54643214131413
 1  15.92987002010201 -0.29784336743674  1.72874935263526
 1  15.67325846074607  2.10335032843284 -0.93751372607261
 1  15.82365639823982  2.21386092159216  1.13432175537554
 1  17.88196951205120  0.36648981958196  1.03162334903490
 1  17.15398292249225 -0.13936576737674 -0.91756313371337
 1  17.78141314841484  2.45988253605360 -1.26236922522252
 1  18.24285428152815  2.62304621152115  0.26940361086109
 1  20.00118267946795  0.76379922612261  0.26749009980998
 1  19.73786210421042  0.95504055365537 -2.91924404960496
 1  20.40395468546854 -0.32750455225523 -2.07737187058706
 1  18.43133586058606 -0.06103382178218 -1.71285936063606
 1  20.79184596319632  3.13188276737674 -0.03189243564356
 1  21.60172791309131  2.43669025172517 -1.07219993499350
 1  20.25906255915591  2.94973246044604 -1.82166696299630
 1  0.12088646354636 -4.19987273667367  3.00543889188919
 1 -1.57107678867887 -5.44871214491449  2.88417905450545
 1 -1.80541455475547 -3.17788626572657  3.96447060026003
 8 -11.68325669997000  3.90921572077208 -0.72639445314531
 1 -12.53515402690269  2.58902014211421 -1.61803240824082

