%nproc=4
%Mem=2GB
# td=(NStates=1) iop(3/107=0140000000,3/108=0140000000) iop(3/107=0140000000,3/108=0140000000) CAM-B3LYP/6-31G(d,p) 

TD

0 1
12 -6.80229280138014  0.67475661976198  0.10556817631763
 6 -4.45000210671067 -2.09362778457846  0.45988626562656
 6 -4.20947276267627  2.77825945904590  1.02992587418742
 6 -8.93079578427843  3.30093411751175 -0.29488899059906
 6 -9.22739083668367 -1.63874690429043 -0.65607566626663
 7 -4.67384245614561  0.38553795149515  0.77520655275528
 6 -3.97568483408341 -0.80947065386539  0.72240279567957
 6 -2.48943236183618 -0.72571433063306  1.06231829412941
 6 -2.40317028282828  0.86446659545955  1.46274843734373
 6 -3.84105036793679  1.30950103530353  0.96966174087409
 6 -2.39662594829483  0.87743953985399  2.84151871467147
 6 -1.53233198159816 -0.97852041544154 -0.09069774347435
 6 -0.11116923522352 -1.04859656625663  0.60751982548255
 6  0.86972805200520 -1.27287452435243 -0.68134630843084
 8  0.84477454555456 -1.04337695019502 -1.81518250845085
 8  1.87519780638064 -2.11325162376238 -0.21634655715572
 7 -6.70059180138014  2.59156952695270  0.37069081698170
 6 -5.47432799369937  3.24787343054305  0.79518581478148
 6 -5.91522573777378  4.75222490729073  0.87789265786579
 6 -7.13518423182318  4.92956904740474  0.34253083638364
 6 -7.67636934083408  3.56536534493449  0.11399623102310
 6 -4.71549646994699  5.75836326682668  1.35138280628063
 6 -7.80319188048805  6.09494641474147  0.32017154085409
 8 -7.32118603480348  7.23514513111311  0.55327318411841
 7 -8.85503905740574  0.74278513771377 -0.48375102420242
 6 -9.44040771317132  1.94925966126613 -0.59322037433743
 6 -10.81111774207421  1.73938380948095 -0.97997377857786
 6 -11.03552791029103  0.27914881928193 -1.13977483298330
 6 -9.71320298359836 -0.31626979017902 -0.83415549224922
 6 -12.00418719401940  2.68015420852085 -1.06862151295130
 6 -12.19251237173717 -0.53102666496650 -1.35838397209721
 6 -12.15195205730573 -0.89503166836684 -2.82941573627363
 7 -6.83064954785479 -1.34913747504750 -0.16154879937994
 6 -8.06351901350135 -2.12033202990299 -0.44929812781278
 6 -7.54638222332233 -3.50462778517852 -0.42006301640164
 6 -6.33839946114611 -3.64520368126813 -0.09339760036004
 6 -5.84188047674767 -2.22076089058906  0.08734491879188
 6 -8.53491201470147 -4.61772915071507 -0.88673148904891
 6 -5.07845404990499 -4.40510630873087  0.08347637333733
 8 -4.96979872857286 -5.54829536783678 -0.15659515291529
 6 -3.98950267566757 -3.48048860806081  0.52605725292529
 6 -3.40230374127413 -3.93328950445044  1.86340605360536
 8 -3.88598383848385 -4.31094782958296  2.89850852065207
 8 -2.00236191109111 -3.81534784008401  1.69168910811081
 6 -1.24201272337234 -4.21343643374337  2.75211963716372
 6  3.12337423022302 -2.36980215711571 -1.13093433753375
 6  4.08475224262426 -1.41196819791979 -0.97421295359536
 6  5.06843759915992 -1.10055692709271 -1.72026822842284
 6  5.02052603640364 -1.87300043474347 -3.00017699989999
 6  5.98309213381338  0.01707405450545 -1.48294485298530
 6  7.28550724472447 -0.84642042414241 -0.74146088338834
 6  8.58807136743674  0.22814844944494 -0.65138361886189
 6  9.71957504690469 -0.39780670097010  0.10966266056606
 6  9.39166668296830 -0.87345616031603  1.37893226202620
 6  10.91087341734173  0.64314916911691  0.24650948934893
 6  12.24140941144114  0.15376668386839  0.49478778997900
 6  13.40569211181118  1.12969024372437  0.43023592199220
 6  14.91631796699670  0.48415169326933  0.38617327942794
 6  15.02173716181618  0.07614533403340  1.94856478047805
 6  15.97823745214522  1.50441534353435 -0.04035082978298
 6  17.32851232933293  0.92311753615362 -0.03972084598460
 6  18.48849839723973  1.89736692789279 -0.44389453625363
 6  19.85864806590659  1.14355285008501 -0.58471855555556
 6  19.58840864216422  0.21366679697970 -1.82936872807281
 6  21.05212238113812  2.29232065006501 -0.78971406730673
 1 -3.50805144344434  3.30944219521952  1.35347474917492
 1 -9.76898088058806  4.15292437753775 -0.47323095699570
 1 -10.18613110471047 -2.23620401970197 -0.71521434733473
 1 -2.43165568236824 -1.46203382118212  1.79400944924492
 1 -1.60458979757976  1.17589806600660  0.68792524592459
 1 -1.63251463516352  0.38263657805781  2.96871758285829
 1 -2.62514068796880  1.85354393079308  3.25369148694869
 1 -2.95076740924092  0.25787367266727  3.40752662176218
 1 -1.94606362666267 -1.73616488948895 -0.41499928672867
 1 -1.77985315431543 -0.00553202610261 -1.17358714951495
 1  0.22975097339734  0.18541710841084  0.96967283248325
 1  0.29053533373337 -1.62315864966497  1.40626085818582
 1 -3.81768629902990  5.55089291719172  0.47277223492349
 1 -4.86727700830083  6.75305798169817  1.34574148024803
 1 -4.45732676087609  5.64011297229723  2.32363013531353
 1 -8.78683169726973  5.96709181838184  0.37111073527353
 1 -12.13482303590359 -1.73573444094409 -0.94322875007501
 1 -13.26363257825783 -0.02781638183818 -1.06976461286129
 1 -13.06485430853085 -1.37622973837384 -3.13515063216322
 1 -12.39017598139814  0.08401582308231 -3.49783195269527
 1 -11.38319514391439 -1.23857717471747 -3.42542915031503
 1 -8.74398358165817 -4.75196175177518 -2.07714994299430
 1 -8.51454666926693 -5.81509152175218 -0.70350000190019
 1 -9.33157043704371 -4.31553351455146 -0.12273766426643
 1 -3.42848242964296 -3.82207593249325 -0.32219052585258
 1  3.32920453585358 -3.41718899269927 -0.79316503360336
 1  2.88812310111011 -2.58558447344734 -2.27974821012101
 1  3.89384671237124 -0.95820856925693 -0.02586898529853
 1  4.12929598659866 -1.72604607710771 -3.66603671867187
 1  6.20932451085109 -1.52213088848885 -3.62638386228623
 1  5.25445927332733 -3.14314692899290 -2.82775695949595
 1  6.29585000690069  0.56560189758976 -2.50233285048505
 1  5.83643875327533  0.75931147894789 -0.72024628802880
 1  6.95338651755175 -1.17501569866987  0.49719144074407
 1  7.51226662506251 -1.44070286058606 -1.23409288518852
 1  8.41677380878088  0.50657125192519 -1.68387117241724
 1  8.41515001310131  0.61045623382338 -0.24197848944894
 1  10.14635708280828 -0.80586803050305 -0.53935109270927
 1  8.72831507580758 -1.93014182988299  1.37517587838784
 1  10.39325539493949 -1.39044292549255  1.73562545394540
 1  8.97657086868687 -0.17335855825583  2.14301560666067
 1  10.95919955775578  1.32431519141914 -0.50169734133413
 1  10.69885963256326  1.25563443904390  1.12037591789179
 1  12.03553109530953 -0.35078751825183  1.62011569486949
 1  12.61437359135914 -0.59404762536254 -0.04943794129413
 1  13.55457032703270  1.83811335633563 -0.72126103070307
 1  13.28288033283328  2.25688994029403  1.02069785918592
 1  14.92955438123813 -0.27131464746475 -0.40723891509151
 1  14.72444234413441  0.99293968946895  2.50602337533753
 1  14.10259753325332 -0.54011168306831  2.12725022312231
 1  15.81441847494749 -0.64286786988699  2.32336881458146
 1  15.77980911581158  1.74606459985999 -1.03918389308931
 1  16.32016604920492  2.71699123462346  0.68154647784779
 1  17.60558187328733  0.83095626622662  0.90868105480548
 1  17.54004152835283  0.07845601480148 -0.66255763316332
 1  17.88312331943195  2.32763931173117 -1.48582157045705
 1  18.27945794189419  2.62551645854585  0.73287995849585
 1  20.12905546674668  0.63106595279528  0.32424577537754
 1  19.64391270927092  0.82078712831283 -3.04211633683368
 1  20.45081937193719 -0.88152995479548 -1.77646177957796
 1  18.10150287728773 -0.20952867126713 -1.71164923962396
 1  21.33672045064506  2.51892147124713 -0.21306055245525
 1  21.95641338163816  1.47905448814881 -1.17248996399640
 1  20.82220887378738  3.01213870107011 -1.26559135543554
 1 -0.09934555965597 -4.30016276567657  2.58227657565757
 1 -1.74610429142914 -5.45466273997400  2.84301493809381
 1 -1.51915592889289 -3.45100357745775  3.39600375357536
 8 -11.72245061936194  4.00846564576458 -1.06492830653065
 1 -12.84013452495249  2.00686192629263 -1.28797940294029

