%nproc=4
%Mem=2GB
# td=(NStates=1) iop(3/107=0140000000,3/108=0140000000) iop(3/107=0140000000,3/108=0140000000) CAM-B3LYP/6-31G(d,p) 

TD

0 1
12 -6.74650722282228  0.67746689078908  0.13214083358336
 6 -4.33522062856286 -2.02914133593359  0.50692096909691
 6 -4.33133494889489  2.98287992109211  0.96130901250125
 6 -9.09659236393640  3.10754477857786 -0.10990049174917
 6 -9.26155425302530 -1.82713574317432 -0.76337639633963
 7 -4.79821489338934  0.39627902560256  0.63003203530353
 6 -3.96827409300930 -0.77962766956696  0.68578913431343
 6 -2.59569298789879 -0.31777353655366  1.03048511081108
 6 -2.62153211901190  1.14957510631063  1.47598976147615
 6 -3.94768103100310  1.58154824002400  0.97177195189519
 6 -2.41933821952195  1.39962175807581  2.74130869366937
 6 -1.55219396779678 -0.60162272567257 -0.12750142384238
 6 -0.25372349064906 -0.98153986058606  0.37578665216522
 6  0.77737881708171 -1.17125436233623 -0.66687486128613
 8  0.83639370747075 -0.57188980148015 -1.71815280548055
 8  1.79772005860586 -2.06645694429443 -0.40812573507351
 7 -6.67930967316732  2.67754812481248  0.24998874677468
 6 -5.59101966286629  3.35794443764376  0.63456975317532
 6 -5.96362057725773  4.91470115491549  0.72462733133313
 6 -7.18376909030903  4.91263735423542  0.28693527682768
 6 -7.73020472437244  3.56362517091709  0.04569940134013
 6 -5.05790071037104  6.04034146464647  0.77449511751175
 6 -8.07889945124512  6.17158407850785  0.35334485818582
 8 -7.75960987718772  7.20560217681768  0.88634649144914
 7 -8.78940249374937  0.66849770897090 -0.34292694179418
 6 -9.58463213561356  1.71981671697170 -0.42104315661566
 6 -11.01913854415442  1.45190506160616 -0.71180696189619
 6 -10.93528788628863  0.06047695209521 -0.91007186268627
 6 -9.66863852715272 -0.46386454965497 -0.73840591729173
 6 -12.13802057735773  2.35143133623362 -0.76218086888689
 6 -12.15395851635163 -0.93253681598160 -1.20836897059706
 6 -12.46121298339834 -1.01119328452845 -2.75525832053205
 7 -6.95983246614661 -1.38891145244524  0.02359971547155
 6 -8.00375303690369 -2.25183518021802 -0.47741093909391
 6 -7.39037662276228 -3.74309163156316 -0.50205121522152
 6 -5.98599422062206 -3.65131429232923 -0.26785504610461
 6 -5.83620990969097 -2.12602141664166  0.17530371467147
 6 -8.16809533303330 -4.84676205400540 -0.89859267516752
 6 -4.85747195169517 -4.35679147724773 -0.00791276557656
 8 -4.76056780548055 -5.56219675797580 -0.16458595199520
 6 -3.59108283368337 -3.38469902910291  0.28385303250325
 6 -3.13161667256726 -3.75086126162616  1.75038475147515
 8 -3.68243348344834 -4.16981371617162  2.75801447124713
 8 -1.68157983288329 -3.67207351265127  1.64531447064706
 6 -1.09442796489649 -4.04872996309631  2.77274169936994
 6  3.06879877267727 -2.17646282318232 -1.29228047214721
 6  3.97381114851485 -1.21166816791679 -0.87662319461946
 6  4.98960971637164 -0.86649352075208 -1.70570677227723
 6  5.22764674847485 -1.48002113681368 -3.10175715791579
 6  6.14597842244224  0.13152549964997 -1.37086364486449
 6  7.36080477447745 -0.71039682178218 -0.93911064836484
 6  8.68310087038704  0.23546918151815 -0.71521000150015
 6  9.78489157855786 -0.50524744504450  0.01408310261026
 6  9.43017053335334 -0.92534134883488  1.50151452025203
 6  10.99422175217522  0.48600345454545  0.02329716811681
 6  12.38832410291029  0.01671297849785  0.26365467666767
 6  13.52324386698670  1.04480175487549  0.35963886228623
 6  14.90519685488549  0.39426270437044  0.85267993009301
 6  14.88789377747775  0.03229094859486  2.31541146514651
 6  16.00755038343835  1.28268317031703  0.23975718101810
 6  17.37435691379138  0.57274249864986  0.09793291939194
 6  18.41424097149715  1.45314250545054 -0.48160830763076
 6  19.82736493759376  0.80229872467247 -0.59441952565257
 6  19.91329113041304 -0.39116368606861 -1.73167895909591
 6  20.79145631453146  1.97396881488149 -0.79116421232123
 1 -3.52307294559456  3.64586583758376  1.43637303900390
 1 -10.01627561006100  3.58096718181818  0.29016538263826
 1 -10.03730622222222 -2.63184358365837 -0.89272209810981
 1 -2.38845136193619 -1.01020863866387  1.85849589788979
 1 -1.88126746534653  1.58812928912891  0.97611406480648
 1 -1.28279966366637  1.08041635603560  2.95020573167317
 1 -2.52995116901690  2.37237581398140  3.07347346514651
 1 -3.20720305280528  0.90079796509651  3.37895376447645
 1 -2.03686270657066 -1.19499077207721 -0.75664345114512
 1 -1.54220938993899  0.10750927802780 -0.74448423922392
 1  0.09957795609561 -0.31883331663166  1.20003586878688
 1 -0.13115683548355 -2.19151548534853  0.74873510561056
 1 -4.19694422482248  5.86432426032603  0.15408036573657
 1 -5.27336761736174  6.68120079597960  0.84535144124412
 1 -5.03886491469147  6.04841380238024  1.86334410671067
 1 -9.27783079717972  6.36252136133613 -0.05359173497350
 1 -11.79077863146314 -1.94823569106911 -0.49531395859586
 1 -13.26908312331233 -0.69974357455746 -0.70544818121812
 1 -13.07337516061606 -1.66813892929293 -3.10609772687269
 1 -13.03795075887589  0.30160758225823 -3.42612478197820
 1 -11.37768459285929 -1.20673399039904 -3.27171377877788
 1 -8.78723790709071 -4.71618817441744 -1.87577980598060
 1 -7.47809302390239 -5.76063607620762 -1.01504115601560
 1 -9.00085736573658 -5.05529749094910  0.01174578407841
 1 -2.83354293569357 -3.47630135503550 -0.43165147194719
 1  3.47407902330233 -3.28671594539454 -1.24267998509851
 1  2.35782007080708 -2.11645756075607 -2.34074430973097
 1  3.51384871257126 -0.54132688108811 -0.01653805220522
 1  4.26739979697970 -1.31579505200520 -3.75574568956896
 1  6.06758033643364 -0.89013768916892 -3.48399962386239
 1  5.60679450685068 -2.72261487578758 -3.16701088488849
 1  6.78863928582858  0.74070940834083 -2.27160977817782
 1  5.72333744314431  0.63658920672067 -0.53735799919992
 1  7.11456263516352 -1.27088528562856  0.13022474407441
 1  7.71532693109311 -1.50904969526953 -1.81607108300830
 1  9.00176230763076  0.63806440124012 -1.65312809810981
 1  8.27007550565057  1.24974016221622 -0.02666695829583
 1  10.03412585968597 -1.57662510621062 -0.40881803940394
 1  8.86905915021502 -1.58899771547155  1.42537089788979
 1  10.33064913431343 -1.25570945214521  2.30021191259126
 1  8.93386659825983  0.01254003160316  2.06052735783578
 1  11.07192082988299  0.97149990989099 -1.10105727732773
 1  10.95933568016802  1.31755063066307  0.63577745804580
 1  12.22492003420342 -0.47668010751075  1.03447713101310
 1  12.50047220122012 -0.93799201980198 -0.31799479697970
 1  13.47972284228423  1.32873241824182 -0.82803170777078
 1  13.10673271807181  1.84825907720772  1.13835962536254
 1  14.75334676047605 -0.44034155015502  0.34696650545055
 1  14.61600150005001  0.90653104860486  2.97140991399140
 1  13.94298157165717 -0.63202087398740  2.63186068416842
 1  15.91865889898990 -0.39844342744274  2.74854133183318
 1  15.81271240614061  1.77128712211221 -0.62818279297930
 1  16.28705273787379  2.20652018751875  0.63436175937594
 1  17.43773508860886  0.12155532613261  1.33314350105010
 1  17.38794631883188 -0.44979681048105 -0.74537591499150
 1  18.16617162426243  1.87998454625463 -1.50516350465046
 1  18.30577057315732  2.34445835273527  0.26074274477448
 1  19.89918247944795  0.32301514771477  0.35963931473147
 1  19.77338565656565 -0.28936388678868 -2.89374149934993
 1  20.87794208420842 -0.45176697849785 -2.03167730113011
 1  19.58706143314332 -1.36158387678768 -1.60914898959896
 1  20.55937271587159  3.05965554465447  0.03538429202920
 1  21.61050879117912  1.70423700640064 -0.94186690169017
 1  20.60383703660366  2.53706119331933 -1.77269206550655
 1  0.33134750965097 -2.95135788518852  2.52725107310731
 1 -0.82305198619862 -5.75907318101810  2.81609224582458
 1 -2.13134714801480 -3.76247472457246  3.93148730193019
 8 -12.05937431173117  3.63697849704970 -0.91213302700270
 1 -13.04436494799480  2.01115235533553 -0.91074167916792

