%nproc=4
%Mem=2GB
# td=(NStates=1) iop(3/107=0140000000,3/108=0140000000) iop(3/107=0140000000,3/108=0140000000) CAM-B3LYP/6-31G(d,p) 

TD

0 1
12 -6.71358393049305  0.51499064316432  0.20600822032203
 6 -4.57349445594559 -2.09419784158416  0.48168844584458
 6 -4.00850266566657  2.61879351245125  0.92240512211221
 6 -8.77099980468047  3.19590361446145 -0.18616811851185
 6 -9.50556865446545 -1.66718974857486 -0.48506856555656
 7 -4.66690176207621  0.36650604830483  0.55237426952695
 6 -3.93880114571457 -0.84405411221122  0.37961851725173
 6 -2.53292671127113 -0.64787654685469  1.07378944124412
 6 -2.36997696349635  0.82100224902490  1.26199836233623
 6 -3.70710697359736  1.33619370457046  0.88655343004300
 6 -1.95993227892789  1.08653044894489  2.74383894669467
 6 -1.66133488188819 -1.13024558795880 -0.11889056275628
 6 -0.18916703500350 -1.33908561516152  0.50473954745475
 6  0.87557863706371 -1.39246648354835 -0.69917809160916
 8  0.81259132723272 -1.11888450095010 -1.87771876207621
 8  2.00601088768877 -2.18389868846885 -0.21430635313531
 7 -6.51487322952295  2.62206257625763  0.30780452835284
 6 -5.31505206610661  3.23735237843784  0.56481277747775
 6 -5.64258847404740  4.75512519731973  0.71587645624562
 6 -7.03539425282528  4.89219531003100  0.26409299259926
 6 -7.57582928682868  3.46949575797580  0.13107793919392
 6 -4.57344226452645  5.82185961646165  0.87449511751175
 6 -7.56260782208221  6.07057397749775 -0.00950142644264
 8 -7.06199011521152  7.09464108070807  0.29078693549355
 7 -8.72933648714871  0.75119597879788 -0.39537218631863
 6 -9.27451112351235  1.86480121542154 -0.60141119341934
 6 -10.73473010331033  1.70305017611761 -0.84689047024702
 6 -10.97140149764977  0.33118402280228 -0.88685954145414
 6 -9.69098076137614 -0.31668983218322 -0.62515459215922
 6 -11.74150092539254  2.72859905300530 -0.99359401020102
 6 -12.21917503800380 -0.34664822712271 -1.32766089978998
 6 -12.28053491559156 -0.54454661986199 -2.83909670437044
 7 -6.96977346024602 -1.37346990829083  0.00384774027403
 6 -8.17788044964496 -2.20494049074908 -0.40333353135314
 6 -7.78185577067707 -3.63686100850085 -0.36729773987399
 6 -6.33504912611261 -3.66316547744774 -0.08747700830083
 6 -6.03022931163116 -2.29491830633063  0.25972215651565
 6 -8.72077060056005 -4.73072044984499 -0.68023083898390
 6 -5.22686889138914 -4.55021081918192 -0.07955993029303
 8 -5.21281303000300 -5.69340987928793  0.03717422402240
 6 -4.02531625702570 -3.48540910011001  0.41178582578258
 6 -3.67616112701270 -3.65237141264126  1.81613132613261
 8 -4.13099833993399 -3.93361009580958  2.92297096689669
 8 -2.33895557045705 -3.58518482378238  1.77454739393939
 6 -1.64585310741074 -3.90656574667467  3.00052447764776
 6  3.05749764256426 -2.52767794469447 -1.26856810091009
 6  4.19611337873787 -1.40818781988199 -1.06956248854886
 6  5.16929768516852 -1.10543741514151 -1.70871707330733
 6  5.37612159595960 -1.90454358905891 -3.12550953315331
 6  6.12654647924793  0.01267361446145 -1.30205676417642
 6  7.22596129012901 -0.86162194429443 -0.94227096439644
 6  8.44298685898590  0.11106674127413 -0.36788526902690
 6  9.75221831123112 -0.60990791109111 -0.03680198589859
 6  9.61767928422842 -1.11860067476748  1.44259862866287
 6  10.84092642264226  0.61800665486549  0.05647048544854
 6  12.26911218171817 -0.06782547534753  0.10320863206321
 6  13.33441498409841  1.09816709140914  0.30995389378938
 6  14.69697603280328  0.31612489058906  0.28105276737674
 6  14.98987397549755 -0.45172745324532  1.59302922692269
 6  15.92827245564557  1.55627052905291  0.23603680898090
 6  17.12802228032803  1.03408863326333  0.02944607070707
 6  18.36198574597460  2.12218941014101 -0.08950909770977
 6  19.66551875297530  1.56443493829383 -0.37759784348435
 6  19.94098389968997  0.90475590589059 -1.72440823202320
 6  20.64559172807281  2.77868928692869 -0.27055215111511
 1 -3.20738137643764  3.21868311931193  1.23625302700270
 1 -9.57810179267927  4.10450953605361 -0.33096673057306
 1 -10.39490198179818 -2.06537693699370 -1.07116994289429
 1 -2.51287380418042 -1.18899651745175  1.86242629092909
 1 -1.55866520512051  1.24221469766977  0.56016246964697
 1 -1.13862524622462  0.72865117951795  3.02032274337434
 1 -2.08155632953295  2.05346392279228  3.05611172897290
 1 -2.78043037553755  0.58776666196620  3.44016988608861
 1 -2.04426344664466 -1.81804307730773 -0.77909569636964
 1 -1.60287545654565 -0.21186265916592 -0.81788157895790
 1  0.17862586088609 -0.52996442974297  1.20074593979398
 1 -0.48458217801780 -2.33351968576858  1.23345357745775
 1 -3.63976850725073  5.83933176107611 -0.21793683598360
 1 -4.92717299789979  6.75094777067707  0.82175908200820
 1 -4.47487851605161  5.84160312131213  2.06407417971797
 1 -8.76553956805681  6.07625273447345 -0.27949432523252
 1 -12.07094664826483 -1.56526739423942 -0.77601202840284
 1 -12.92511872687269  0.24063046284628 -0.74274191059106
 1 -13.21095891899190 -1.06682879827983 -3.21103822092209
 1 -12.01600856465647  0.50174759625963 -3.06086825632563
 1 -11.51600842524252 -1.23290660766077 -2.98829543694370
 1 -9.04976415971597 -4.61365792139214 -1.84369659765977
 1 -8.51435665026503 -5.59814982758276 -0.32186183808381
 1 -9.40715799579958 -4.87264922612261  0.38310291979198
 1 -3.02919250065007 -3.48224194909491 -0.34902320912091
 1  3.40251186658666 -3.73423069686969 -1.09931564866487
 1  2.47593188198820 -2.10761667666767 -2.37062729802980
 1  4.00317764546455 -0.62777552595259 -0.10373677207721
 1  4.37549060606061 -1.31172464496450 -3.68278839383938
 1  6.62036561496150 -2.08540721612161 -3.59964118801880
 1  5.13796762416242 -3.16711932623262 -2.54633881768177
 1  6.29370979287929  0.69073441084108 -2.45687830503050
 1  5.95173028242824  0.41243679147915 -0.73730799419942
 1  6.95828700760076 -1.57827602470247  0.05074679627963
 1  7.66622202060206 -1.59286807710771 -1.67618709460946
 1  8.85100723212321  0.89445003980398 -1.14233701900190
 1  8.09752825092509  0.65047023522352  0.34494020242024
 1  9.85561800890089 -1.33351079477948 -0.64156131373137
 1  8.60388263256326 -1.67070588628863  1.85073343414341
 1  10.48696476587659 -1.68851273247325  1.51080297169717
 1  9.90147335893589 -0.04877610001000  2.03479478457846
 1  10.60195383318332  1.38972173207321 -0.75603277487749
 1  10.40105985258526  1.35558443404340  0.83861774207421
 1  12.25240278247825 -0.76534897439744  1.04770845414541
 1  12.45764791879188 -0.46145436603660 -0.72177517501750
 1  13.44453932393239  1.61667121212121 -0.91103000760076
 1  12.92420446524652  1.40076432773277  1.40452624202420
 1  14.99380080588059 -0.50456797279728 -0.47182537373737
 1  14.78742864276428  0.27362775827583  2.29932270527053
 1  14.32169944344434 -1.15007267916792  1.46276377447745
 1  16.20813784688469 -0.56444002710271  1.94553103080308
 1  15.67801893679368  2.64440443384339 -0.36637661236124
 1  15.80185421802180  2.19874941044104  1.09904822802280
 1  17.60564187928793  0.26390956155616  1.04840502720272
 1  17.07187471167117  0.24385255445545 -0.91801317871787
 1  18.16201120822083  2.67827437523752 -0.68893188148815
 1  18.48463845994599  2.39824373127313  0.80008667916792
 1  19.67418998019802  0.52219506570657  0.19163251405140
 1  19.69324764276428  1.54374942454246 -2.64011613681368
 1  21.08332262226223  0.66164436263626 -1.82700683408341
 1  19.19611233823382  0.19186146774677 -1.88480655535554
 1  20.85772255085508  3.14228380748075  0.98139889348935
 1  21.36544428472848  2.51830841354135 -0.18686140114011
 1  20.48865551845184  3.67037452465246 -0.90653544984498
 1 -0.62294791989199 -4.70983373277328  2.63409175717572
 1 -2.10838051905190 -4.43746101980198  3.74159479607961
 1 -1.08537255055506 -2.70527900500050  3.31732588578858
 8 -11.54475284958496  3.85936073527353 -0.77278909260926
 1 -12.41145165666567  2.21360260036004 -1.64143474847485

