%nproc=4
%Mem=2GB
# td=(NStates=1) iop(3/107=0140000000,3/108=0140000000) iop(3/107=0140000000,3/108=0140000000) CAM-B3LYP/6-31G(d,p) 

TD

0 1
12 -6.63537610971097  0.55667481158116  0.14873249274928
 6 -4.65059216571657 -2.07197561936194  0.59313959095910
 6 -4.32904471987199  2.74428606170617  1.18621150275028
 6 -8.86968967366737  3.11672569666967 -0.16441594329433
 6 -9.15345344294430 -1.85145817541754 -0.65428548724872
 7 -4.70178525042504  0.41492088978898  0.73205223732373
 6 -4.15159242484248 -0.80625033183318  0.77765832123212
 6 -2.60488390699070 -0.72739449864987  1.10266232853285
 6 -2.52943290909091  0.88982913171317  1.34029619211921
 6 -3.86730299319932  1.42568265346535  1.19675445014501
 6 -2.08134442014201  1.25198699459946  2.66345090789079
 6 -1.66706545494549 -0.98032059545955  0.00789211551155
 6 -0.26611472977298 -1.30058176477648  0.42314138763876
 6  0.73650472967297 -1.42200943784378 -0.81310948474847
 8  0.64059412751275 -0.80515312781278 -1.88105909610961
 8  1.79666995359536 -2.14867516611661 -0.49045396789679
 7 -6.74032577477748  2.63497386738674  0.28904265216522
 6 -5.64516507740774  3.28822746594659  0.75002129832983
 6 -5.89512372757276  4.82318200300030  0.67949281788179
 6 -7.20271098449845  4.93973006350635  0.38480506380638
 6 -7.60867257115712  3.58137694609461  0.13111794319432
 6 -5.01885680598060  5.94856228672867  1.05615328332833
 6 -7.89667122842284  6.08434535463546  0.30807033073307
 8 -7.50487440364036  7.19923153975398  0.59846770357036
 7 -8.64969852335233  0.65848670787079 -0.40307295639564
 6 -9.21138481088109  1.84987972327233 -0.55606665896590
 6 -10.54117074737474  1.63603347444744 -1.06664244544454
 6 -10.82560691819182  0.18779968436844 -0.99122997849785
 6 -9.45403706700670 -0.36668483168317 -0.66054813151315
 6 -11.73524029932993  2.53178937203720 -1.11141579237924
 6 -11.99158227872787 -0.44280784308431 -1.38956709040904
 6 -12.05318218031803 -0.98979114431443 -2.98220101480148
 7 -6.89781626452645 -1.40296285758576  0.05022237773777
 6 -7.94583724532453 -2.28337833453345 -0.30531372937294
 6 -7.45986357145715 -3.70056737913791 -0.34859586968697
 6 -6.11257687888789 -3.65869503040304 -0.07645590619062
 6 -5.82480876957696 -2.12405121962196  0.14169035333533
 6 -8.49827835133513 -4.75451282908291 -0.62069488538854
 6 -5.04597080158016 -4.45441123922392  0.10788881458146
 8 -5.01728347704770 -5.61699223752375 -0.03214270767077
 6 -3.80894461986199 -3.48338889808981  0.47001164836484
 6 -3.31992550345034 -3.90060623612361  1.85369508250825
 8 -4.07600284038404 -3.91080781558156  2.87497616741674
 8 -1.92329400430043 -3.65396170147015  1.93093303250325
 6 -1.16391491359136 -4.03262835293529  3.19508393359336
 6  2.82595448824883 -2.34219939683968 -1.54985622972297
 6  3.94908867626763 -1.44375137623762 -1.23418895119512
 6  4.92096285168517 -1.00895776717672 -1.89922612421242
 6  5.07446142994299 -1.26896003070307 -3.36422340454045
 6  5.98915273987399 -0.09407706060606 -1.33896045454545
 6  7.26332502650265 -0.67871365346535 -1.07559429672967
 6  8.37940050035003  0.31816745134513 -0.82134061456146
 6  9.67985107450745 -0.32928984928493 -0.14502280798080
 6  9.47315483178318 -0.91128994369437  1.44154852365237
 6  10.71278360836084  0.67881273547355  0.12192703110311
 6  12.19971524202420  0.12464377157716  0.18384669586959
 6  13.36610815341534  1.08084535923592  0.19137203560356
 6  14.89015535073507  0.48987226532653  0.39344400650065
 6  14.96723171127113 -0.16986926742674  1.86541646564656
 6  16.01651127952795  1.47425232723272  0.35575878117812
 6  17.30866034413441  0.70233545794579  0.04552767886789
 6  18.46134568196820  1.79937712891289 -0.38136828362836
 6  19.83901610271027  1.10140863566357 -0.37767785148515
 6  19.88642844414441  0.35702113241324 -1.64129992119212
 6  20.88918608750875  2.13027444544454 -0.31750684658466
 1 -3.46217685598560  3.55954720572057  1.47697709940994
 1 -9.76639062156216  3.91556064116412 -0.13482711661166
 1 -9.99598208980898 -2.34091449074907 -0.75031785768577
 1 -2.39165168196820 -1.29982760056006  1.92041208950895
 1 -1.82988232683268  1.32129260546055  0.55793224662466
 1 -0.93249463316332  0.80238855325533  2.71437214831483
 1 -1.90849902380238  2.25081365776578  2.90639675747575
 1 -2.97763009550955  0.92142002730273  3.48154402350235
 1 -2.03687270757076 -1.77974924792479 -0.44557234403440
 1 -1.94819998899890 -0.01487296019602 -0.70634042484248
 1 -0.00788278997900 -0.35841727502750  1.11810767596760
 1 -0.30687440724072 -2.52388872267227  0.80046027812781
 1 -4.32030656105611  6.41336916481648  0.31570652835284
 1 -5.56895717631763  6.91469414531453  1.58587549364937
 1 -4.30625165336534  5.44393335433543  1.96706447874787
 1 -9.06256927102710  5.80028513771377  0.02093571777178
 1 -11.98801835543554 -1.46106697419742 -0.59801422862286
 1 -12.74103031803180  0.33351975177518 -1.29504714111411
 1 -13.33755157825783 -1.48752086748675 -3.07030414751475
 1 -11.89503646744675 -0.09104168266827 -3.80188235773577
 1 -11.24804162856286 -1.55056837383738 -3.35140174757476
 1 -9.02286146944695 -4.51929848544855 -1.59243147114712
 1 -8.03473868846885 -6.00133014561456 -0.97144679657966
 1 -9.72148942894290 -4.54845680688069  0.00941555105511
 1 -3.10426000740074 -3.47562128702870 -0.27822612941294
 1  2.72408402380238 -3.48466574037404 -1.45521123822382
 1  2.36381066986699 -2.07202311731173 -2.57465770107011
 1  3.88100542824283 -1.29143189158916 -0.23874027242724
 1  3.97641069806981 -1.14836830933093 -3.93907402240224
 1  5.93819739813981 -0.56603527892789 -3.83139436333633
 1  5.36669049644965 -2.38565117941794 -3.23975815961596
 1  6.15677609950995  0.91011634903490 -2.12613523072307
 1  5.76925203460346  0.42838838663866 -0.53774803820382
 1  6.91418259715972 -1.29283748084809 -0.42378065646565
 1  7.35028042644264 -1.10822961326133 -2.01997147304731
 1  8.54779691109111  0.96483707850785 -1.72002478777878
 1  7.99477797589759  1.13984917311731 -0.01410570217022
 1  10.05527797489749 -1.07706515021502 -0.83689084668467
 1  8.04828707300730 -1.47894671037104  1.42246060686069
 1  10.37938400780078 -1.56150003120312  1.78616050745074
 1  9.21998521012101 -0.28754997739774  2.40942224732473
 1  10.80074371217122  1.37443020292029 -0.71113828542854
 1  10.66720646724672  1.33716259185919  0.82847672797280
 1  12.41567911011101 -0.35893833333333  1.10289397269727
 1  12.33501565556556 -0.55043326392639 -0.81404440194019
 1  13.25923079307931  1.84048359335934 -0.93623252785278
 1  13.47286933173317  1.91705595689569  0.79225501490149
 1  15.09365079087909 -0.27459497549755 -0.25962415361536
 1  14.76523642354236  0.58654905040504  2.70015278827883
 1  14.11921919541954 -1.17221489338934  1.87793529162916
 1  15.93168020112011 -0.66153973707371  2.20384686238624
 1  15.75646678157816  1.98949894329433 -0.55237521222122
 1  16.16930096269627  2.12591212671267  1.03795211841184
 1  17.37750906600660  0.35977914851485  1.16975716241624
 1  17.33964148834883 -0.03332516331633 -0.50179155655566
 1  18.27523253035304  2.31022757055706 -1.46505949424942
 1  18.31224122022202  2.59148305520552  0.50758742924292
 1  19.89154171537154  0.12579542574257  0.20083343414341
 1  19.77366568456846  0.97781283088309 -2.53353547874788
 1  20.87070136013601 -0.01622342414241 -1.49552368576858
 1  19.11439416641664 -0.45879359775978 -1.89203727842784
 1  21.01978875747575  2.27138671777178  0.55905665926593
 1  21.92615035533554  1.81065764846485 -0.41145386038604
 1  20.90453710661066  3.03809129632963 -0.84806960326033
 1 -0.04285991109111 -4.72730547994800  2.49195754375438
 1 -2.13124280528053 -4.75957323102310  3.69145978257826
 1 -0.68413242654266 -3.25867434453445  3.79201335453545
 8 -11.57164553885389  3.65726052525252 -1.05376719041904
 1 -12.58042855435544  2.06914815491549 -1.14735534053405

