%nproc=4
%Mem=4GB
# td=(NStates=1) iop(3/107=0140000000,3/108=0140000000) iop(3/107=0140000000,3/108=0140000000) CAM-B3LYP/6-31G(d,p) 

TD

0 1
12 -5.64707621422142  1.20047492179218  0.22128073327333
 6 -4.97124751195120 -2.21994045734573 -0.33667053385339
 6 -3.49908869796980  1.19876016081608  2.78136350965097
 6 -6.24816361206121  4.52596586078608  0.69505971477148
 6 -7.89211497859786  1.14692554325433 -2.41960963446345
 7 -4.23457771107111 -0.29913810561056  1.02332367116712
 6 -4.22223575107511 -1.63656735833583  0.61811416101610
 6 -3.18941206570657 -2.40969427222722  1.53315767946795
 6 -2.94555772677268 -1.25956884778478  2.68722527862786
 6 -3.55939336673667 -0.02733536123612  2.11559614481448
 6 -3.53876691609161 -1.81913535493549  3.98419111851185
 6 -1.89565475867587 -2.66755416471647  0.75567087258726
 6 -0.84161580508051 -3.53528110871087  1.49058264626463
 6  0.32188728922892 -3.93881772247225  0.62766096079608
 8  0.50617068136814 -3.52455976957696 -0.49686592079208
 8  1.17463430913091 -4.80988060536054  1.31755636293629
 7 -4.97229804610461  2.63229260616062  1.44485471717172
 6 -4.01598368816882  2.42147956965697  2.49631023432343
 6 -3.81740124382438  3.60930943314331  3.24665522172217
 6 -4.56348690139014  4.60312184048405  2.60654992629263
 6 -5.39132523672367  3.95935403060306  1.53623971627163
 6 -2.82682804590459  3.72923029882988  4.37217140654065
 6 -4.64408093869387  6.02144956545655  3.06843634843484
 8 -3.85551559955996  6.45391327932793  3.90665456535654
 7 -6.83065686558656  2.64090398619862 -0.79549120542054
 6 -6.98295100990099  3.95396501370137 -0.37770945964596
 6 -7.90614580098010  4.58387511231123 -1.33153726322632
 6 -8.36397585088509  3.62016894679468 -2.20440938533853
 6 -7.69792868336834  2.46830283908391 -1.87021296779678
 6 -8.39188217911791  5.97505741514151 -1.24864437323732
 6 -9.40221458475848  3.76405680388039 -3.23207784058406
 6 -8.80771222492249  4.25417356355636 -4.56696310031003
 7 -6.30289870887089 -0.16230124782478 -1.05721081308131
 6 -7.18128765836584 -0.03047911651165 -2.15433964466447
 6 -7.40336784398440 -1.29617132073207 -2.79803232583258
 6 -6.52143169196920 -2.16320589238924 -2.15238140384038
 6 -5.82334074947495 -1.41953551865187 -1.09684581498150
 6 -8.38701415921592 -1.53682380838084 -3.78580547674767
 6 -6.09288295539554 -3.58069365326533 -2.00639419451945
 8 -6.41002539803980 -4.51105880428043 -2.66504276937694
 6 -5.05379394149415 -3.62045009760976 -0.89374169396940
 6 -5.42359983738374 -4.68100354145415  0.17420109190919
 8 -5.87845361696170 -4.39558856695670  1.32873923732373
 8 -5.37374707290729 -5.85760695709571 -0.30374351895189
 6 -5.70341790599060 -6.83611546484649  0.65892772257226
 6  2.37612858605861 -5.10468158835884  0.64808876327633
 6  3.46878141314131 -4.26231639253925  1.05807370717072
 6  3.92862225242524 -3.20356322642264  0.22388602360236
 6  3.60698503740374 -2.99840478177818 -1.35059456395640
 6  5.12282870867087 -2.37403245084508  0.70926472527253
 6  6.47740261156116 -2.61447437263726 -0.04304283688369
 6  7.59353467706771 -1.72996235173517  0.46209189968997
 6  8.99942076337634 -1.94223905750575 -0.11639942244224
 6  9.54164054575458 -3.32403304370437  0.05179172147215
 6  10.00126070517052 -0.83137337473747  0.41355387088709
 6  11.34979228162816 -0.91642124902490 -0.38992775897590
 6  12.23109079767977  0.24943957145715  0.11643849144914
 6  13.54085654145415  0.43505837573757 -0.66979174237424
 6  14.59681798079808 -0.70182958555856 -0.36118026892689
 6  14.16002194179418  1.81149732133213 -0.24836409120912
 6  15.39966415681568  2.08269629782978 -1.07438243324332
 6  15.88395097949795  3.55149990279028 -0.70100071327133
 6  17.27556280538054  3.87219506110611 -1.25560949614961
 6  17.12324491419142  4.10442533423342 -2.76935916011601
 6  18.11022042814281  5.08347361266127 -0.67324678357836
 1 -2.82111783458346  1.29733400880088  3.56878734713471
 1 -6.49488746754675  5.56106148654866  0.75898489018902
 1 -8.65880628782878  1.14954525742574 -3.22412789158916
 1 -3.76877794259426 -3.15689100450045  2.08342640344034
 1 -1.84067119101910 -1.29822748434843  2.94950622672267
 1 -3.20397017611761 -2.67681084228423  4.41462500650065
 1 -3.65004579727973 -0.91534143854385  4.53629565936594
 1 -4.57045955765577 -2.08122720362036  3.85689964046405
 1 -2.04865017871787 -3.21576109340934 -0.16324694849485
 1 -1.45203303570357 -1.71716083238324  0.44819294089409
 1 -0.54964039753975 -2.70665196079608  2.23464768346835
 1 -1.42713743534353 -4.46456358755876  2.07430922892289
 1 -1.84725483928393  3.49322884728473  4.04532044174417
 1 -2.86167715781578  4.79357656365636  4.67320357805781
 1 -3.49724271927193  3.28219921742174  5.35704071007101
 1 -5.34660772467247  6.66007020142014  2.45360068146815
 1 -9.79226836033603  2.84735539263926 -3.15545879757976
 1 -10.01307210511051  4.54233807790779 -2.72636292699270
 1 -9.68248804860486  4.40548896289629 -5.43557876017602
 1 -8.32288179757976  5.30640038543854 -4.55033498849885
 1 -8.03149299829983  3.67667702650265 -4.98166809160916
 1 -8.03632122172217 -0.91936247914791 -4.56521752005200
 1 -8.50770175317532 -2.76111951705170 -4.24433707070707
 1 -9.40402048154816 -1.33448027142714 -3.41418832553255
 1 -4.14907226462646 -3.82886771337134 -1.40964425132513
 1  2.45191632463246 -6.18286622962296  0.80924688158816
 1  1.86890763416342 -5.03244022012201 -0.43108655825583
 1  4.11674379667967 -4.31149043084308  2.01217622522252
 1  2.63049803650365 -3.18851447254725 -1.74013655465547
 1  3.74951956525653 -1.88308186748675 -1.51304377487749
 1  4.32230440444044 -3.47062079127913 -2.01637056295630
 1  5.14706474737474 -1.43152957695770  0.32387427092709
 1  5.27926645394539 -2.39345097749775  1.88454333463346
 1  6.73998152485249 -3.60977416951695 -0.01220333633363
 1  6.26334649504950 -2.42761037003700 -0.98556915241524
 1  7.38852778407841 -0.64336766186619  0.10579782528253
 1  7.62150425332533 -1.85078166126613  1.50073445874587
 1  9.03496760606061 -1.87882615781578 -1.17153049114912
 1  8.70032455115511 -3.85721449284928 -0.45722951535153
 1  10.48066740754076 -3.33874807690769 -0.51453156665667
 1  9.56674573597360 -3.66198729022902  1.16757720042004
 1  9.58044719531953  0.01584731093109  0.15068043184318
 1  10.06627672517252 -0.94307084098410  1.46169570957096
 1  11.71818695999600 -1.83599363126313 -0.15577995119512
 1  11.12620870757076 -0.55308821372137 -1.26941827542754
 1  11.56792782628263  1.22423685288529  0.05927637243724
 1  12.74012883618362 -0.03331213981398  1.13794207440744
 1  13.32407920862086  0.47384181648165 -1.80591282998300
 1  14.76013535183518 -0.66032424512451  0.67924360436044
 1  14.03288885988599 -1.57810682698270 -0.52264858635864
 1  15.60432142054206 -0.59012221042104 -0.76550344284428
 1  13.58704689888989  2.60326494559456 -0.36654844254425
 1  14.42964966526653  2.05532582178218  0.85197241114111
 1  16.42708436423642  1.43086169886989 -0.96869336003600
 1  15.07045262866287  2.00180409320932 -2.12547392709271
 1  14.99790119471947  4.13508888688869 -0.99139113721372
 1  16.03479624972497  3.63832047344734  0.39617951835184
 1  17.79557323872387  2.95564705590559 -1.13504258385839
 1  16.14938565896589  4.57941447034704 -3.25896825662566
 1  18.02941886538654  4.43437295059506 -3.17242184728473
 1  17.14829502970297  3.01332240224022 -3.35380341494149
 1  18.30185623282328  4.96905812331233  0.33549521372137
 1  19.12647016931693  5.47715186738674 -1.23839075347535
 1  17.33062461336134  6.00801030413041 -0.72023608490849
 1 -5.05553085448545 -7.75058449154915  0.27666412871287
 1 -6.71051548184819 -7.08734582118212  0.55638914641464
 1 -5.39225739433943 -6.42333390899090  1.91901635823582
 8 -7.94407199879988  6.78861536233623 -0.45319310331033
 1 -9.22109040614061  6.27425307020702 -1.78360404320432

