%nproc=4
%Mem=4GB
# td=(NStates=1) iop(3/107=0140000000,3/108=0140000000) iop(3/107=0140000000,3/108=0140000000) CAM-B3LYP/6-31G(d,p) 

TD

0 1
12 -5.46887839443944  1.30297517181718  0.11246985218522
 6 -5.01684207140714 -2.11283974727473 -0.29890675747575
 6 -3.38786757585759  1.16854713951395  2.80297567086709
 6 -6.09377817351735  4.53308657285729  0.68181839063906
 6 -8.01781754885489  1.09435028572857 -2.26246391989199
 7 -4.35819007230723 -0.27253544534453  0.99185052385239
 6 -4.22517604510451 -1.62557625922592  0.64363671327133
 6 -3.19088221272127 -2.38129143194319  1.60116448014801
 6 -2.98639181018102 -1.35351824272427  2.65131168726873
 6 -3.59655708310831 -0.09332195989599  2.06788137333733
 6 -3.78793183258326 -1.73505694709471  3.98033073247325
 6 -2.00840603380338 -2.66725413471347  0.66255156065607
 6 -1.00777242074207 -3.62607018761876  1.51042463046305
 6  0.24377947844784 -3.87142098279828  0.57381557625763
 8  0.41548161246125 -3.42300961456146 -0.55960219441944
 8  1.07917476317632 -4.54256387368737  1.29747435473547
 7 -4.83450426672667  2.59086846374637  1.48991922362236
 6 -3.95470756055606  2.40232765446545  2.49548015131513
 6 -3.68008751245124  3.60717922012201  3.24367492369237
 6 -4.45019557225723  4.57669919821982  2.56588585988599
 6 -5.24570067426743  3.93226132133213  1.50172626492649
 6 -2.76024138723872  3.76287366316632  4.28246243564356
 6 -4.63272980358036  5.98959638013801  2.94708421322132
 8 -4.05554560256026  6.54907279527953  3.83426732663266
 7 -6.83034683458346  2.50896079187919 -0.69963161946195
 6 -6.84394710951095  3.81632124932493 -0.39393108180818
 6 -7.82994818121812  4.55021174597460 -1.20614472397240
 6 -8.43550300360036  3.64427135703570 -2.08992793719372
 6 -7.80507939843984  2.38445445424542 -1.74601054755476
 6 -8.21558454935494  5.97133704310431 -1.25386489528953
 6 -9.48454281758176  3.89958035623562 -3.11567620042004
 6 -8.84885633933393  3.98495664186419 -4.54421082508251
 7 -6.42523094209421 -0.19019403710371 -1.13494858685869
 6 -7.42994252385239 -0.11841791039104 -1.99974418511851
 6 -7.63439094629463 -1.37078878247825 -2.65328785138514
 6 -6.75107465626563 -2.28432800460046 -2.02026819251925
 6 -5.99029744514451 -1.40498406350635 -1.13056918731873
 6 -8.69783524132413 -1.58939906590659 -3.81603850005000
 6 -6.20952461956196 -3.59564514841484 -1.90804435953595
 8 -6.69797419291929 -4.55468316671667 -2.59326559165917
 6 -4.95266382848285 -3.50967902050205 -0.89170148994899
 6 -5.39120659805981 -4.58150359145915  0.11679535133513
 8 -5.83064883648365 -4.34347335543554  1.19215557895790
 8 -5.25590528872887 -5.88477967436744 -0.43960710531053
 6 -5.48153571777178 -6.88165001830183  0.59080090989099
 6  2.35021599479948 -4.87496861706171  0.61389534393439
 6  3.42296683168317 -3.95518567946795  0.93214111391139
 6  4.15840523072307 -3.13877674777478  0.15976961196120
 6  3.78989332823282 -3.11977691899190 -1.31614111861186
 6  5.29201562736274 -2.25434048164816  0.72355615441544
 6  6.54755962726273 -2.72741566676668  0.03577504490449
 6  7.80961628522852 -1.93691304680468  0.49843553405341
 6  9.18581940324032 -2.02150698429843 -0.22501028352835
 6  9.74578095979598 -3.46889753015302 -0.06674013171317
 6  10.09945052415241 -0.95930616801680  0.26261877737774
 6  11.40355765816582 -0.80232983988399 -0.42794156035604
 6  12.22802049064906  0.32705733323332  0.08651549914991
 6  13.59724218001800  0.42692756265627 -0.53151791499150
 6  14.46124442344234 -0.82105150775078 -0.13047719861986
 6  14.35048098769877  1.70918709030903 -0.08818807360736
 6  15.47720191059106  2.04750277847785 -1.03156815181518
 6  16.08033061746174  3.44233898669867 -0.53344395759576
 6  17.32732798189819  3.92436027762776 -1.29980391559156
 6  16.90766335603560  4.32674756645665 -2.72925514971497
 6  17.84667407350735  5.17185245054505 -0.65886534543454
 1 -2.55773149594960  1.07387166256626  3.61200166856686
 1 -6.37253523232323  5.55468084848485  0.46612560426043
 1 -8.70194060126013  1.21028133103310 -3.08211369016902
 1 -3.54203526832683 -3.38069338473847  1.90098815961596
 1 -1.83656077997800 -1.19602726432643  2.90015129122912
 1 -3.85630540964096 -2.81332449364937  4.40151369536954
 1 -3.82474326702670 -1.03631353575358  4.77298932873287
 1 -5.07074958665867 -1.44462354325433  3.95965991649165
 1 -2.13266858055806 -3.16720623792379 -0.26603722752275
 1 -1.35623345574557 -1.74435355165517  0.41128925052505
 1 -0.53378881238124 -2.84705600120012  2.38764298299830
 1 -1.32222694429443 -4.60652778397840  1.74595639363936
 1 -1.70685079887989  3.75497502190219  3.82995890559056
 1 -2.87031802190219  4.63257046304630  4.86134239193919
 1 -2.86938993399340  3.06892789028903  5.11396640264026
 1 -5.41836490039004  6.47287148154815  2.40413573497350
 1 -10.28426756025602  3.21647230433043 -3.16476972867287
 1 -10.18759955785579  4.54085792989299 -2.70966125682568
 1 -9.69974977477748  4.02000041404140 -5.30075527782778
 1 -8.15385489488949  4.78815856125613 -4.76296625162516
 1 -8.32764261326133  3.11135049384939 -4.73335326012601
 1 -8.47618520812081 -0.88882942584258 -4.58141914021402
 1 -8.45351633463346 -2.71534493959396 -4.20345298229823
 1 -9.56875695519552 -1.70354717811781 -3.43428033473347
 1 -4.02996035343534 -3.94912973957396 -1.61000428732873
 1  2.57475860886089 -6.06773471647165  1.10704666156616
 1  2.24661540494049 -5.00705768186819 -0.50421387098710
 1  3.64549667196720 -3.95803508530853  1.93476848444844
 1  2.59574456115612 -3.53893951505151 -1.52047458845885
 1  3.80414502780278 -2.15881944124413 -1.56679915041504
 1  4.40999317331733 -3.58238196739674 -1.88712763866387
 1  5.14545458635864 -1.18345476947695  0.54326621012101
 1  5.17867639493949 -2.44074570697070  1.82189707000700
 1  6.72224975167517 -3.84146733883388  0.29511739573957
 1  6.50004016441644 -2.37262487148715 -1.16128672417242
 1  7.29999893119312 -0.84150747584758  0.60292753825383
 1  7.93350545344535 -2.08933551665167  1.75594998029803
 1  8.95351946124612 -2.00098837403740 -1.22144548264826
 1  9.03767828652865 -4.13988275967597 -0.55860965336534
 1  10.65932527332733 -3.37144134623462 -0.79415952945295
 1  10.13464252565257 -3.43164425592559  0.97065750845084
 1  9.69223837443744 -0.01158543234323  0.46238160196020
 1  10.11071116861686 -1.09402593649365  1.33719325932593
 1  12.09091423272327 -1.75770580248025 -0.44231860506051
 1  11.10726681338134 -0.96564946984698 -1.49349068266827
 1  11.64984601810181  1.24440887008701 -0.26357591279128
 1  12.18180300360036  0.23047423882388  1.26700498069807
 1  13.45253205390539  0.40003443574357 -1.78080031873187
 1  14.52696203450345 -0.87542575527553  0.91192687268727
 1  13.81899747074707 -1.80905992229223 -0.43104942644264
 1  15.41095208360836 -0.84202740094009 -0.54920181268127
 1  13.72539073327333  2.33276789588959 -0.16877866556656
 1  14.54959165946595  1.77756804600460  0.85803301720172
 1  16.21269292509251  1.19646825952595 -1.12461895259526
 1  15.02573815721572  1.99598351115112 -1.98336971667167
 1  15.20185158975898  3.98066344434443 -1.00890288838884
 1  16.37374014411441  3.39576621802180  0.49160906130613
 1  17.86810049144914  3.06053754495450 -1.21212029162916
 1  16.21400212061206  5.23340986988699 -2.78037039683968
 1  18.03761968546855  4.62046155945595 -3.37389199429943
 1  16.37198739893989  3.47312838283828 -3.26368440304030
 1  18.05492153935393  4.79308052555256  0.44296596079608
 1  18.58680620292029  5.59017316951695 -1.26995390979098
 1  17.10946249714971  6.11657116021602 -0.73277733903390
 1 -5.36134143554355 -7.83516294939494  0.13143960626063
 1 -6.43173760406041 -6.73778086468647  1.03415692319232
 1 -4.73535170377038 -6.68387996359636  1.46478093469347
 8 -7.87124471607161  6.90900740154015 -0.54265204920492
 1 -8.76285458255825  6.12995864076408 -2.19752543534353

