%nproc=4
%Mem=4GB
# td=(NStates=1) iop(3/107=0140000000,3/108=0140000000) iop(3/107=0140000000,3/108=0140000000) CAM-B3LYP/6-31G(d,p) 

TD

0 1
12 -5.70758226482648  1.14437931223122  0.26405501070107
 6 -5.01377176437644 -2.15579404270427 -0.37212407920792
 6 -3.41710049914991  1.10048033283328  2.85229060236024
 6 -6.15457425312531  4.56789005320532  0.76924713351335
 6 -7.99717548464846  1.17470832153215 -2.37044471797180
 7 -4.38038229152915 -0.29438763056306  1.08735007380738
 6 -4.25365889338934 -1.70618432003200  0.67906025562556
 6 -3.21801492599260 -2.43991729452945  1.48442280598060
 6 -2.89996316731673 -1.45770866176618  2.65237179327933
 6 -3.56981440884088 -0.13339596729673  2.27718230343034
 6 -3.45715875527553 -1.84419786118612  3.96265896529653
 6 -2.00029522272227 -2.82472988228823  0.61785709120912
 6 -1.01642328582858 -3.66219379998000  1.38146173417342
 6  0.25682078257826 -3.94724856555656  0.59724791949195
 8  0.42061212551255 -3.56814412801280 -0.49839607380738
 8  1.10117696339634 -4.64227384468447  1.35261986928693
 7 -4.95409622592259  2.57604698159816  1.55686591829183
 6 -3.90948303810381  2.38202562426243  2.47284788808881
 6 -3.61050055375538  3.65140364256426  3.21439199539954
 6 -4.42241279397940  4.52212374067407  2.61686095739574
 6 -5.20888699289929  3.95961405660566  1.61050714301430
 6 -2.62563792689269  3.76441381718172  4.29760394979498
 6 -4.45791232183218  5.97050447094709  2.87831733653365
 8 -3.93205325332533  6.44548243624362  3.88147204710471
 7 -6.79279307920792  2.64996489228923 -0.73620527682768
 6 -6.82237495229523  3.98040765796580 -0.44281597029703
 6 -7.66722190859086  4.61256798159816 -1.38083219271927
 6 -8.28647810111011  3.68235516541654 -2.14955389978998
 6 -7.71146003650365  2.43197920672067 -1.77048299479948
 6 -8.08257124802480  6.08786869626963 -1.20598010681068
 6 -9.34741910521052  3.97408780698070 -3.26715134793479
 6 -8.64702615631563  4.10711885808581 -4.68763516751675
 7 -6.39649806880688 -0.17546256395640 -1.11412650465047
 6 -7.41030055965597 -0.06222229082908 -2.07371158185819
 6 -7.63986149334934 -1.37163886748675 -2.73333585618562
 6 -6.66985653445345 -2.19002857465747 -2.07781394709471
 6 -6.05771418681868 -1.39205277037704 -1.05037116751675
 6 -8.70542600040004 -1.63900402640264 -3.86424332053205
 6 -6.26902056915692 -3.56714229812981 -2.06999055415542
 8 -6.51715611111111 -4.54412211061106 -2.66755302040204
 6 -5.10564912701270 -3.49951800440044 -0.80147246704670
 6 -5.40268774617462 -4.62208764986499  0.14800847264726
 8 -5.87188295989599 -4.45740474857486  1.30802716611661
 8 -5.06760645884589 -5.81995319171917 -0.38303144774477
 6 -5.44472203640364 -6.88037989128913  0.49718154795480
 6  2.31129210241024 -4.98325944614461  0.67665161956196
 6  3.44528906390639 -4.11873203410341  0.99390729052905
 6  3.98666805700570 -3.30184305440544  0.04851848684869
 6  3.69663400230023 -3.19558449974997 -1.41418092259226
 6  5.13094952075208 -2.30014506210621  0.51521532033203
 6  6.43026789808981 -2.66226915211521  0.04695616301630
 6  7.58372369596960 -1.79407876337634  0.65262095259526
 6  9.03462428372837 -2.00676551015102  0.07328954645465
 6  9.57476385808581 -3.34255489588959  0.18286482878288
 6  10.00700127922792 -0.89334957235724  0.46111862736274
 6  11.31264856725673 -0.83021262816282 -0.23326209240924
 6  12.06189387798780  0.44470909840984  0.21193804140414
 6  13.32834529032903  0.59487435733573 -0.51154591779178
 6  14.34192249124913 -0.66547595019502 -0.28910306120612
 6  14.16439237883788  1.93251942354235 -0.11236049084909
 6  15.26462065246525  2.23821184938494 -1.05507050205021
 6  15.86704928932893  3.61292604540454 -0.69806041924192
 6  17.30056530563056  3.90282812441244 -1.34166810201020
 6  17.23915650535053  3.96883177487749 -2.89050127432743
 6  17.84637404350435  5.24160942624262 -0.88636809570957
 1 -2.66707243004300  1.16063033843384  3.67202767116712
 1 -6.45288326712671  5.65704108450845  0.69436842854285
 1 -8.76304671187119  1.32317262016202 -3.11566704550455
 1 -3.53084414921492 -3.47624293969397  2.04199226002600
 1 -1.72875999989999 -1.32885054665467  2.67656893299330
 1 -3.30585036413641 -2.94530769196920  4.15115865986599
 1 -2.86094688738874 -1.26307621202120  4.77188921872187
 1 -4.64498701040104 -1.52061114201420  4.01892584308431
 1 -2.38106342004200 -3.34861437873787 -0.11286190999100
 1 -1.38244607700770 -1.91315043134313  0.55356347794779
 1 -0.85667110061006 -3.20753204880488  2.37279149784978
 1 -1.37794251585159 -4.62870000120012  1.63167496549655
 1 -1.58097821162116  3.18389791419142  4.09642555225522
 1 -2.24984597469747  4.78954616061606  4.61162742044205
 1 -2.98450144514452  3.19806080358036  5.17096210221022
 1 -5.01007407130713  6.65709990439044  2.26435175657566
 1 -9.96425555905591  3.25462611971197 -3.24603785548555
 1 -9.83659445734573  4.86239008310831 -3.09462975367537
 1 -9.54675447524753  3.88833724772477 -5.41210641294129
 1 -8.23559306870687  5.04656440184018 -4.68980893589359
 1 -8.02610245924592  3.31381073987399 -4.90334025882588
 1 -8.43956154575458 -0.96735727862786 -4.58757975627563
 1 -8.49176015901590 -2.50254365946595 -4.35782841984198
 1 -9.69113919341934 -1.20067689108911 -3.59138604530453
 1 -4.08853621102110 -3.74352917951795 -1.23965725262526
 1  2.45219635263526 -6.00821876487649  0.92184814171417
 1  1.99867061046105 -4.92065904200420 -0.40512396199620
 1  3.63986610891089 -4.18530781258126  1.93436844444444
 1  2.62585757245725 -3.50768638973897 -1.46716925792579
 1  3.77114172747275 -2.26830038933893 -1.76790926142614
 1  4.25549772377238 -3.78831256045605 -2.05903482938294
 1  4.85467550845084 -1.30309673367337 -0.03139125562556
 1  5.11207973527353 -2.13136476887689  1.71176605690569
 1  6.64752227892789 -3.66549974207421  0.56092397639764
 1  6.52676283668367 -2.60741835083508 -1.16732732823282
 1  7.22191112241224 -0.73868719381938  0.38650589608961
 1  7.52489459235924 -2.01455803890389  1.67380176547655
 1  8.97292140144014 -2.02828110331033 -1.12286562466247
 1  8.99501402010201 -4.06981575297530 -0.23169696209621
 1  10.58159750055006 -3.46452065416542 -0.25430554405441
 1  9.74140320172017 -3.72237332883288  1.33092353505351
 1  9.55251440204020  0.04298002420242  0.14972033583358
 1  10.22324242174217 -0.94811134503450  1.54026356635664
 1  12.14861000230023 -1.59741977387739 -0.05435980918092
 1  11.05307139383938 -0.79451235613561 -1.31681301490149
 1  11.57765879937994  1.40139456865687 -0.04957451265127
 1  12.39861468476848  0.27367855925593  1.42081036123612
 1  13.28669547024702  0.46145057735774 -1.54061630033003
 1  14.62121145944594 -0.52651086378638  0.69608528852885
 1  13.99444501550155 -1.71652066836684 -0.74764108560856
 1  15.25874686308631 -0.46448964716472 -0.75119201170117
 1  13.48259645384539  2.75929054815482 -0.03370515821582
 1  14.69995669596960  1.70142043124312  0.87309452335234
 1  16.21098275407541  1.40448906160616 -0.90183667436744
 1  14.99587517091709  2.21091500430043 -2.16799817951795
 1  15.24647605220522  4.47237261526153 -0.96664866296630
 1  15.97915068516852  3.61908855025503  0.39771967236724
 1  18.04157783918392  3.10463195439544 -1.01509058865887
 1  16.44452517291729  4.67577410631063 -3.16020838063806
 1  18.25799172267227  4.33993350665067 -3.11353595869587
 1  17.11518171837184  2.77562863286329 -3.37748578317832
 1  17.71635768296829  5.51825304280428  0.15104676887689
 1  18.92028955125513  5.22681683388339 -1.19636655105511
 1  17.36786833773377  6.25769527262726 -1.51098515981598
 1 -5.35639094049405 -7.68891832493249 -0.08487202490249
 1 -6.53409784008401 -6.83682076867687  0.70350385788579
 1 -4.94899306790679 -6.92604418001800  1.34589904650465
 8 -7.62607019861986  6.85811231203120 -0.48706649064907
 1 -8.97796609370937  6.36765241014101 -1.66577226002600

