%nproc=4
%Mem=4GB
# td=(NStates=1) iop(3/107=0140000000,3/108=0140000000) iop(3/107=0140000000,3/108=0140000000) CAM-B3LYP/6-31G(d,p) 

TD

0 1
12 -5.60227173377338  1.19118399269927  0.16750535573557
 6 -5.00897128432843 -2.12773123642364 -0.35947281408141
 6 -3.32749153825382  1.14192447724772  2.68541391469147
 6 -6.18830762646265  4.45802906710671  0.73334354315432
 6 -7.95602136923692  1.19579042974297 -2.36340401390139
 7 -4.32850710401040 -0.29073726552655  1.00174151295130
 6 -4.26105963346335 -1.64437813941394  0.58009035863586
 6 -3.14919804430443 -2.40123342614261  1.49801416511651
 6 -2.93849702070207 -1.37133002390239  2.63176973307331
 6 -3.52281970937094 -0.07991061876188  2.13077766296630
 6 -3.44975801520152 -1.67970141154115  3.92801550095009
 6 -1.99893508670867 -2.71812922222222  0.63123842934293
 6 -0.93241488498850 -3.55960354095410  1.38152174017402
 6  0.29236433693369 -3.84461830253025  0.53156135083508
 8  0.47484754905491 -3.56809412301230 -0.61416765096510
 8  1.10242708840884 -4.64353397069707  1.23546815411541
 7 -4.92544336063606  2.56771614851485  1.47689792149215
 6 -4.00775286508651  2.33415083678368  2.44383498679868
 6 -3.72186168986899  3.65853435563556  3.18405896209621
 6 -4.52236278897890  4.57229875817582  2.62084135543554
 6 -5.25843194739474  4.01064916011601  1.55397148944894
 6 -2.73179854295430  3.68773614941494  4.24386857625763
 6 -4.61247777837784  5.98378579907991  3.03400290509051
 8 -4.01355140314031  6.46935482348235  3.92723662356236
 7 -6.87028082798280  2.55822571837184 -0.63828548484848
 6 -6.91723443824382  3.90569018621862 -0.37049873857386
 6 -7.89585477187719  4.57950467526753 -1.18940304980498
 6 -8.36173562686269  3.60998792869287 -2.04711365576558
 6 -7.79191808230823  2.46919292809281 -1.73068901540154
 6 -8.23799679057906  6.03843375277528 -1.25160466926693
 6 -9.39204356765677  3.78443884208421 -3.27667230003000
 6 -8.67224867856786  4.05810395659566 -4.55814221822182
 7 -6.35848426742674 -0.17987300500050 -1.06344143614361
 6 -7.30853038263826  0.00194412581258 -2.05334954565457
 6 -7.57458496569657 -1.32057376097610 -2.75880840344034
 6 -6.68865841464146 -2.12399197099710 -2.08481464716472
 6 -6.03075149054905 -1.42859642474247 -1.00458658905891
 6 -8.54126958475847 -1.65721584758476 -3.80471736793679
 6 -6.23311697879788 -3.55564114801480 -2.02037559265927
 8 -6.54043843934393 -4.52327002540254 -2.72772903800380
 6 -5.11881044314431 -3.53341139373937 -0.87138945874587
 6 -5.44154163156316 -4.57516295739574  0.16881055285529
 8 -5.90999677127713 -4.32982199029903  1.21299766316632
 8 -5.18449814801480 -5.81497269366937 -0.24890803540354
 6 -5.57161472567257 -6.96074792809281  0.53660549034903
 6  2.39683065626563 -5.04328544874488  0.73738769316932
 6  3.56185072007201 -4.09554971587159  1.07910581038104
 6  4.09226861706171 -3.17180005010501  0.25421905690569
 6  3.67680201910191 -3.07436237753775 -1.25446495099510
 6  5.12760918671867 -2.27730277787779  0.84827862666267
 6  6.49377424872487 -2.59386231143114  0.16007747514751
 6  7.71628695229523 -1.81608096359636  0.62505819631963
 6  8.98644946624662 -2.02688752235224 -0.20327811031103
 6  9.55598197989799 -3.46443708410841  0.13556009830983
 6  9.90708128722872 -0.83498373577358  0.32185470097010
 6  11.28970627302730 -0.94516412331233 -0.40076884308431
 6  12.25996368496850  0.12980760826083  0.25023187078708
 6  13.60703315911591  0.37625249514951 -0.55410017321732
 6  14.59210750975098 -0.89941934453445 -0.47835198609861
 6  14.24641058065806  1.75076124772477 -0.17486674147415
 6  15.45828001840184  2.21960998919892 -0.99134412941294
 6  15.94728731313131  3.57033178597860 -0.57071768496850
 6  17.32151740084009  4.01117895949595 -1.33485742094209
 6  16.96917950765076  4.15158004970497 -2.80891311551155
 6  17.86003540964096  5.29959522482248 -0.79888934783478
 1 -2.54056977977798  1.26988126352635  3.31423189158916
 1 -6.42050002880288  5.45631101150115  0.95051404310431
 1 -8.73676408360836  1.22817312021202 -3.17468294709471
 1 -3.70423148794880 -3.17647296269627  1.94414247504751
 1 -1.80417754165417 -1.16045370697070  2.71138241434143
 1 -3.08887866696670 -2.69942310351035  4.33989753375338
 1 -3.06660745344534 -1.02590249464947  4.79213124292429
 1 -4.66640915261526 -1.76057513841384  3.82146609710971
 1 -2.38358367206721 -3.33183270057006 -0.35732635643564
 1 -1.44454228662866 -1.77027614391439  0.46855497709771
 1 -0.66095152865286 -2.95083637923792  2.40513473217322
 1 -1.34064878647865 -4.44448157935794  1.95384718271827
 1 -1.75544565836584  3.52358188258826  3.92008791849185
 1 -2.76427741784178  4.69124633063306  4.66699295699570
 1 -2.87073006800680  2.78799979747975  4.89481448744874
 1 -5.21255431933193  6.67271146554655  2.44821014241424
 1 -10.13205233873387  2.87460811791179 -3.23492674437444
 1 -9.92439323722372  4.78851269536954 -3.05444573527353
 1 -9.55648544834484  4.49366778077808 -5.26615181748175
 1 -7.93161267066707  4.97311705710571 -4.33061301630163
 1 -8.18611846084608  3.26623598239824 -5.04971489628963
 1 -8.56027361696170 -1.02081262416242 -4.66383738203820
 1 -8.44962594559456 -2.61046445154515 -4.18524116111611
 1 -9.67407748724873 -1.55815263866387 -3.58349525622562
 1 -4.14043140054005 -3.87174200080008 -1.33422670957096
 1  2.65558669166917 -6.06992493549355  1.17824378127813
 1  2.24204494789479 -4.99889686578658 -0.22841629122912
 1  3.85986810911091 -4.15193447524752  2.08590359795980
 1  2.68084307100710 -3.90025564666467 -1.28793133413341
 1  3.68028264156416 -2.04473803310331 -1.40856332683268
 1  4.28586076007601 -3.76238996819682 -1.89413833973397
 1  4.99004904580458 -1.18593501750175  0.76963884738474
 1  5.30461898919892 -2.24921655405540  1.93439832013201
 1  6.64952247894789 -3.62922611471147  0.20106799079908
 1  6.44313447384738 -2.23381099009901 -0.93293388888889
 1  7.28773770507051 -0.72621594669467  0.59891713721372
 1  7.89169127202720 -1.93959054215422  1.64927931323132
 1  8.81918602790279 -1.80234851005100 -1.27651098919892
 1  8.96250076877688 -4.39341811321132 -0.36071986438644
 1  10.54680402120212 -3.44350855295530 -0.23864397789779
 1  9.81182024342434 -3.72829392089209  1.10259070177018
 1  9.40273942454245  0.27460318651865 -0.06195083128313
 1  10.03204330183018 -0.99766630053005  1.40447998799880
 1  11.93432857415742 -1.76748678057806 -0.26490086328633
 1  11.17341342804280 -0.60371327622762 -1.43500483408341
 1  11.88429946344634  1.17186161536154  0.20676112091209
 1  12.55445026832683 -0.31509031763176  1.33307158735874
 1  13.10860766146615  0.68767319961996 -1.61189342804280
 1  14.97743708200820 -1.07319553225323  0.55435111511151
 1  13.81684725572557 -1.79526854315432 -0.67855417691769
 1  15.10045103350335 -0.94902810101010 -1.45581247374738
 1  13.50690888508851  2.60355497459746 -0.19955174287429
 1  14.53349004930493  1.88935922512251  0.84354156805681
 1  16.35056671247125  1.47487610031003 -1.06620311101110
 1  15.14314989838984  2.30531444424442 -2.13063444314431
 1  15.25566697129713  4.35068044604460 -0.81931392949295
 1  16.15580835093510  3.22681932333233  0.61801170157016
 1  18.04470815221522  3.27536902810281 -1.12499157875788
 1  16.10216093649365  4.81474800370037 -2.94377673747375
 1  17.87569349284929  4.65402491579158 -3.30118472357236
 1  16.75061526172617  3.27272834283428 -3.23630166476648
 1  17.96152219941994  5.38713993149315  0.27645931013101
 1  18.90255777807781  5.43262741494149 -1.31589850425042
 1  17.17113866476648  6.19935943904390 -1.07526158745875
 1 -5.14233953535354 -7.69592902600260 -0.09340287798780
 1 -6.57581201150115 -6.67635472207221  0.75328883638364
 1 -5.27555572417242 -6.61826340194019  1.60767522412241
 8 -7.71948954055406  6.89139564036404 -0.60617840184018
 1 -9.04927322442244  6.35729137403740 -1.94928061086109

