%nproc=4
%Mem=2GB
# td=(NStates=1) iop(3/107=0140000000,3/108=0140000000) iop(3/107=0140000000,3/108=0140000000) CAM-B3LYP/6-31G(d,p) 

TD

0 1
12 -6.69172174427443  0.61238038213821  0.08316593609361
 6 -4.46199330583058 -2.08012643444344  0.37875815281528
 6 -4.35660747614761  2.89864149724972  1.03226610821082
 6 -9.04123682838284  3.22901692579258 -0.21726122782278
 6 -9.30300839843984 -1.82328535813581 -0.67516757545755
 7 -4.64439951185119  0.40634003170317  0.57239627172717
 6 -3.91191845744574 -0.79893960076008  0.57773832923292
 6 -2.53254667326733 -0.43964572377238  0.99541160346035
 6 -2.52560252605261  1.13110325912591  1.36904906740674
 6 -3.98434469736974  1.51977206240624  0.91974674937494
 6 -2.25385167086709  1.22340413631363  2.70506506930693
 6 -1.53032178057806 -0.79392195559556 -0.22162083578358
 6 -0.17641575987599 -1.31079278587859  0.33010208370837
 6  0.85782686188619 -1.55573281018102 -0.75724389818982
 8  0.82870293839384 -0.83898651115111 -1.83173416361636
 8  2.01923220982098 -2.16271657025703 -0.41503642614261
 7 -6.60007174937494  2.60160053005300  0.09703345124512
 6 -5.60043060396040  3.41327997119712  0.57113340954095
 6 -5.82857707290729  4.81101078587859  0.69344421302130
 6 -7.09589030243024  4.96236232673267  0.32926951025103
 6 -7.65484718861886  3.58229703810381 -0.05896106470647
 6 -5.14618953925392  5.89416684718472  1.22356002400240
 6 -7.95941750305030  6.11505842594259  0.28750827452745
 8 -7.50910482668267  7.21052266886689  0.47244510131013
 7 -8.79934348784878  0.73014387358736 -0.36723937303730
 6 -9.24362803520352  1.85297003230323 -0.42470352265227
 6 -10.71632826312631  1.54934480558056 -0.72899868106811
 6 -10.94694905240524  0.11913281768177 -0.93450430593059
 6 -9.71885354865486 -0.29704786798680 -0.55469754645464
 6 -11.89343611891189  2.54340053315332 -0.90775542634263
 6 -12.09966308680868 -0.74315787808781 -1.24174230793079
 6 -12.08961582368237 -1.13310547574757 -2.80869366406641
 7 -6.84728121102110 -1.43854641594159 -0.08374101860186
 6 -7.94088675027503 -2.26247624432443 -0.26906010401040
 6 -7.65612319741974 -3.72888021042104 -0.24670568066807
 6 -6.24434005520552 -3.72230139103910 -0.08806706730673
 6 -5.89799608830883 -2.18510732523252 -0.03422723842384
 6 -8.62645116861686 -4.82836021382138 -0.38208102400240
 6 -5.10534673917392 -4.32415821392139 -0.05034700900090
 8 -4.86122787148715 -5.58404894319432 -0.23868336173617
 6 -3.78844256965697 -3.43401396059606  0.43463811101110
 6 -3.32082559345935 -3.68222439793979  1.70253996699670
 8 -3.99542478257826 -4.01034776957696  2.65296396619662
 8 -2.08270994589459 -3.51880818611861  1.61683162236224
 6 -1.40477900000000 -3.88234332443244  2.90259468466847
 6  3.00079197199720 -2.35739091599160 -1.29599084318432
 6  4.05285905330533 -1.42608961006101 -0.91460699299930
 6  5.09047980338034 -1.19575644704470 -1.81073727532753
 6  5.28008199199920 -1.96042917761776 -3.17767474967497
 6  6.07817164176418  0.09093144024402 -1.55444200270027
 6  7.44979367336734 -0.66950273237324 -0.89535627292729
 6  8.44489705000500  0.42543817841784 -0.56547502800280
 6  9.84441753115312 -0.23581050135013  0.04764645894589
 6  9.53607112341234 -0.95491430613061  1.23721809060906
 6  10.80493282328233  0.87076193039304  0.06285112351235
 6  12.16199146964697  0.26159746694669  0.18582689388939
 6  13.44275581818182  1.14249152385239  0.15009790819082
 6  14.75219155435544  0.42618589668967  0.46216087818782
 6  14.96001098919892  0.01785950545055  1.82656258025803
 6  15.87393702210221  1.41797669966997  0.03749695499550
 6  17.35388486658666  0.75055027942794  0.21870499659966
 6  18.29924947234723  1.76051324252425 -0.31557170397040
 6  19.79990219131913  1.08163665846585 -0.19660974467447
 6  19.84105390669067 -0.24945951565157 -1.09701549274927
 6  21.13668083698370  2.14841625962596 -0.55913100900090
 1 -3.84868550685069  3.38876012701270  1.45843524522452
 1 -9.77794177667767  4.08060714581458 -0.30923455735574
 1 -10.30972346394639 -2.66598699799980 -0.55137796369637
 1 -2.30552306910691 -1.10144776257626  1.83082313061306
 1 -1.68438777737774  1.37601807800780  0.49122557595760
 1 -1.24716610031003  0.65406372077208  2.67065777687769
 1 -2.03479165306531  2.21210978737874  3.12395851365137
 1 -2.90496282878288  0.61082896819682  3.28691456055606
 1 -2.10815983628363 -1.94714598759876 -0.52202998979898
 1 -1.37679284828483 -0.07598907180718 -1.02262205300530
 1  0.32693069136914 -0.51047248054806  0.95680154535454
 1 -0.24379809960996 -2.35982231603160  0.91262149424943
 1 -4.17882241264126  5.93140096799680  0.97032198989899
 1 -5.31229150975097  6.66553922982298  1.29204611071107
 1 -5.33847487568757  5.81708066906691  2.41210898319832
 1 -8.92905591969197  5.91120622982298 -0.19652602840284
 1 -12.22241179477948 -1.52186305380538 -0.25373980118012
 1 -12.96914312931293 -0.06790039023902 -0.89152678907891
 1 -12.90873869696970 -2.04845696109611 -3.06750386748675
 1 -11.89920688448845 -0.26733931243124 -3.49202137163716
 1 -11.33507033143314 -1.72113543054305 -3.02531913931393
 1 -9.32220140344034 -4.46305286088609 -1.54094632263226
 1 -7.78803401800180 -5.44503451605161 -0.77531718361836
 1 -9.26024330433043 -5.41084304550455  0.56956156565656
 1 -3.06229581098110 -3.51373509840984 -0.36027433423342
 1  3.28112972837284 -3.34807208100810 -1.02779849694969
 1  2.77925221402140 -2.28810472547255 -2.42147238253825
 1  3.97385471317132 -0.66524927332733  0.14362796439644
 1  4.55947900490049 -1.06631010351035 -3.71047116211621
 1  6.51459503790379 -1.89725840124012 -3.78462968686869
 1  4.96030985838584 -3.10829344364436 -2.91953613741374
 1  6.10415083698370  0.52020735813581 -2.84107672487249
 1  5.56628173757376  1.23065861366137 -0.72742700610061
 1  7.12926410531053 -1.40025822292229  0.05593731533153
 1  7.92117751615161 -1.14151294159416 -1.62032150805080
 1  8.54618675007501  0.95596619141914 -1.40747353265327
 1  8.12039053715372  0.97340252845285  0.12270797919792
 1  10.12547499459946 -0.92812025572557 -1.01700885848585
 1  8.79065130943094 -1.70887970367037  1.13018137893789
 1  10.43895996539654 -1.66800068126813  1.91692358375838
 1  9.05858907050705 -0.39872109450945  2.08039934503450
 1  10.82006564436444  1.66017877777778 -0.88841601320132
 1  10.54539428602860  1.48568744434443  0.47921180148015
 1  12.00023756595660 -0.28266070557056  1.52121580488049
 1  12.77236939093909 -0.72341056165617 -0.52652565006501
 1  13.72051692169217  1.49638918391839 -1.05982488708871
 1  12.98764080888089  1.67194144544455  0.90390618001800
 1  14.61250267606761 -0.18368588458846 -0.24780297149715
 1  15.22258215811581  1.11798219371937  2.67369014201420
 1  13.83993126662666 -0.50158783068307  2.17682518061806
 1  15.66499353245324 -0.96804038713871  1.87417389508951
 1  15.63666480138014  1.63802379577958 -1.22735270997100
 1  15.78156218881888  2.44992452795280  0.70477880108011
 1  17.78846016111611  0.50229339993999  1.47974816151615
 1  17.38790631483148 -0.45401723252325 -0.43058443584358
 1  17.97259226632663  2.04235078287829 -1.04414740304030
 1  17.89216921302130  2.62857676457646  0.55260193069307
 1  19.76666922812282  0.68942178837884  0.89749310011001
 1  19.82489080708071  0.08485353495349 -2.24859698489849
 1  21.03354764476448 -0.50437223902390 -0.69189332273227
 1  19.24715744274427 -1.04008172657266 -1.03827190189019
 1  21.40920769936994  3.00612019111911  0.37552830643064
 1  22.24338207850785  1.42724930763076 -0.64241695669567
 1  21.16066271917192  2.96522400960096 -1.20204500080008
 1 -0.71458708380838 -4.02638538793880  2.48661700970097
 1 -1.72263194419442 -4.59255652935294  3.34232486908691
 1 -1.74949896319632 -3.11001947904790  3.88137229042904
 8 -11.72479085338534  3.70928572777278 -0.59316112981298
 1 -12.87196770827083  1.92987422752275 -1.33813441844184

