%nproc=4
%Mem=4GB
# td=(NStates=1) iop(3/107=0140000000,3/108=0140000000) iop(3/107=0140000000,3/108=0140000000) CAM-B3LYP/6-31G(d,p) 

TD

0 1
12 -5.59634114071407  1.14240911521152  0.25929453465347
 6 -4.96670705790579 -2.10200866416642 -0.36136300310031
 6 -3.24639342844284  1.21525180998100  2.74735010831083
 6 -6.22139093479348  4.54095735993599  0.76591680048005
 6 -7.94640040714071  1.11397224792479 -2.42501017451745
 7 -4.30753500680068 -0.30232842464246  0.96845818461846
 6 -4.21735526302630 -1.60392409400940  0.67268961856186
 6 -3.16117924242424 -2.41938524132413  1.48676304000400
 6 -2.88831200220022 -1.36859975087509  2.62731928802880
 6 -3.49182661006101 -0.03268589628963  2.12822740794079
 6 -3.56762980238024 -1.85233867526753  4.00006270567057
 6 -1.98229342254225 -2.72553996329633  0.60313561906191
 6 -1.00317196069607 -3.57011459205921  1.36775036303630
 6  0.22695779627963 -3.86943078377838  0.60341853655366
 8  0.47542760706071 -3.58461577517752 -0.59004523872387
 8  0.94469131483148 -4.74776439373937  1.30127473477348
 7 -4.96119693599360  2.62678205510551  1.52172240394039
 6 -3.99628171797180  2.40624804650465  2.50307091039104
 6 -3.80247975167517  3.66416491869187  3.22406296249625
 6 -4.61561211391139  4.57176870517052  2.63334260556056
 6 -5.32791889608961  3.90883897909791  1.55451154345435
 6 -2.82086744984498  3.83034040984098  4.34922911231123
 6 -4.76040257085709  6.02117953845385  3.00903040784078
 8 -3.91992204020402  6.55195308330833  3.75317921782178
 7 -6.83186698659866  2.58117801360136 -0.74426608290829
 6 -6.96418913371337  3.89765938313831 -0.38084977367737
 6 -7.93847903430343  4.64652137693769 -1.26222033153315
 6 -8.39310876417642  3.61078800870087 -2.09050799519952
 6 -7.74734362486249  2.42553856265627 -1.77049299579958
 6 -8.28582157305731  6.05220512991299 -1.19376888568857
 6 -9.41154551785179  3.76713711191119 -3.19221385418542
 6 -8.74641609530953  4.31302944914491 -4.52349875387539
 7 -6.28363678267827 -0.16630164786479 -1.15351044304430
 6 -7.31597112671267 -0.03612968156816 -2.05810002070207
 6 -7.43418092529253 -1.36188789238924 -2.73977650025002
 6 -6.57580712951295 -2.13586315811581 -2.09097526322632
 6 -5.86608502390239 -1.36027959305931 -1.15804193459346
 6 -8.64202966076608 -1.74884501050105 -3.74837173337334
 6 -6.09378304540454 -3.50327591149115 -2.10555411051105
 8 -6.42663705920592 -4.41922962136214 -2.75970223532353
 6 -4.84178274037404 -3.52053010561056 -0.95067738753875
 6 -5.18681615901590 -4.51684712581258  0.18692236403640
 8 -5.76692246384638 -4.36411541964196  1.23391975537554
 8 -4.79903960216022 -5.78525972237224 -0.28347149174918
 6 -5.15809337353735 -6.84318617191719  0.53934576437644
 6  2.33611458465847 -5.09965108530853  0.65922987738774
 6  3.42079661466147 -4.00088024892489  1.02297019681968
 6  4.01697108730873 -3.16956982708271  0.16707034203420
 6  3.71476581548155 -3.18178311961196 -1.29144864936494
 6  5.04630105590559 -2.25774082168217  0.61950574937494
 6  6.39999487078708 -2.69806273147315  0.20797226462646
 6  7.59650497409741 -1.75272462796280  0.64386007650765
 6  8.87063788508851 -2.01812664626463 -0.09641742424242
 6  9.51090747244725 -3.39572021242124  0.12223876617662
 6  9.85270584968497 -0.89339957735774  0.38354086958696
 6  11.17260456285629 -0.82478208510851 -0.33449221542154
 6  12.18633632223222  0.19215384288429  0.39432628022802
 6  13.45376783258326  0.42388725862586 -0.54532929612961
 6  14.35518381738174 -0.81688109070907 -0.62582673357336
 6  14.26252219181918  1.73886005760576  0.03229397459746
 6  15.38279246964696  2.07776580478048 -0.85842083708371
 6  15.95985857025703  3.61116586938694 -0.61035164836484
 6  17.30636588568857  3.86101394299430 -1.40654458965897
 6  17.08537112681268  3.82610750245024 -2.91874409860986
 6  17.78056746284628  5.21908717401740 -0.98339779867987
 1 -2.72946866966697  1.28753302870287  3.75218568696870
 1 -6.42325030383038  5.60985636603660  0.63820281198120
 1 -8.72191259845985  1.06366666956696 -3.12343782258226
 1 -3.65808687348735 -3.33237855325533  1.95667372817282
 1 -1.85114223812381 -1.35025268686869  3.08758003410341
 1 -3.06696647574757 -2.80802396359636  4.31379492349235
 1 -3.49363015571557 -1.12787269166917  4.85047707750775
 1 -4.65657816951695 -2.24974405530553  3.94507845834583
 1 -2.32918823252325 -3.14774429172917 -0.39898052185219
 1 -1.25634346674667 -1.93354247054705  0.30132825442544
 1 -0.73300873437344 -3.15464676027603  2.50624484318432
 1 -1.56265098669867 -4.48113524472447  1.50461225922592
 1 -1.66208632243224  3.57783730813081  4.12411832153215
 1 -2.75495648574857  4.75088229422942  4.74788104580458
 1 -3.20223321832183  3.17618861636164  5.19139414541454
 1 -5.71366443034303  6.47047124152415  2.44641996339634
 1 -9.81997113061306  3.00390104720472 -3.27878112981298
 1 -10.06143694159416  4.50644448854885 -2.75551584228423
 1 -9.48250805060506  4.40065847984799 -5.23382858515852
 1 -8.36548605800580  5.34461420682068 -4.25719567456746
 1 -8.02440228922892  3.74807416621662 -4.92951287608761
 1 -8.73329091869187 -0.82500304320432 -4.61513251155115
 1 -8.21543252625263 -2.71816522162216 -4.11560419741974
 1 -9.77874795429543 -1.88771559495950 -3.32197910461046
 1 -3.82547990539054 -3.65431025762576 -1.31245453235324
 1  2.60545167816782 -6.10504844784478  1.27345330223022
 1  2.12961370477048 -5.42982995909591 -0.45554900450045
 1  3.49614173647365 -3.87389667146715  2.18733374097410
 1  2.53309829652965 -3.21982760386039 -1.54853739473947
 1  3.90645525882588 -2.07737129642964 -1.72154462496250
 1  4.14536671067107 -3.98781251045104 -1.94626355225523
 1  4.69472951385139 -1.27693411741174  0.17430931443144
 1  4.99431795909591 -2.09767139953995  1.81448632893289
 1  6.52828035473547 -3.64672786488649  0.88204608860886
 1  6.44096425682568 -2.89733734273427 -0.88585918141814
 1  7.23001193249325 -0.76019934503450  0.48087533303330
 1  7.57050915381538 -1.86805338843884  1.75190957625763
 1  8.78746285558556 -1.93038131333133 -1.19930326842684
 1  8.66775129382938 -3.98730750215021 -0.08623241564156
 1  10.36990633143314 -3.52180638273827 -0.50911102460246
 1  9.63667272867287 -3.53023411491149  1.16210665336534
 1  9.11958110871087 -0.05575984978498  0.17004236803680
 1  9.97302740024002 -0.97274380828083  1.57109664966497
 1  11.71680682198220 -1.86683671557156 -0.44716909010901
 1  11.09653574027403 -0.28667157205721 -1.46496783038304
 1  11.70066109960996  1.24530896009601  0.53503394819482
 1  12.51958678197820 -0.25952476107611  1.45269354955495
 1  13.24936173687369  0.72352678497850 -1.57341958065807
 1  14.65280461876188 -1.15407362006201  0.33897957795780
 1  14.01599717071707 -1.45988500480048 -1.50028635013501
 1  15.41865285368537 -0.53962716091609 -1.01410830333033
 1  13.55293348754875  2.55828044714471  0.05662387468747
 1  14.46191289158916  1.58949923912391  1.20433764766477
 1  16.30788244404441  1.63832244494449 -0.66221271197120
 1  14.99695527892789  1.77144105690569 -1.81010238993899
 1  15.08849025362536  4.24550992899290 -0.96074807290729
 1  15.85923869396940  3.85389203060306  0.35368526892689
 1  18.02738642004200  3.12043353455346 -1.10956003560356
 1  16.11582230263026  4.49805633453345 -3.29398175797580
 1  17.83361928542854  4.07514702800280 -3.53740834593459
 1  16.72497269746975  2.85618668866887 -3.09004703930393
 1  17.72914896209621  5.40820203770377  0.24026569076908
 1  18.81690921322132  5.44729888208821 -1.34625153955396
 1  17.09018056895690  6.09760926402640 -1.34811887318732
 1 -4.88251355275528 -7.83840327342734  0.09232569486949
 1 -6.19549397969797 -6.82071915851585  0.92497600510051
 1 -4.51777994659466 -6.69877145274527  1.39112356895690
 8 -7.75960355195520  6.81681818261826 -0.43697148114811
 1 -9.12295059215922  6.38335398029803 -1.76680236303630

