%nproc=4
%Mem=4GB
# td=(NStates=1) iop(3/107=0140000000,3/108=0140000000) iop(3/107=0140000000,3/108=0140000000) CAM-B3LYP/6-31G(d,p) 

TD

0 1
12 -5.58471997859786  1.25810068436844  0.14349295449545
 6 -5.11314170137014 -2.13748221152115 -0.30222708950895
 6 -3.48292708180818  1.12267255205521  2.74708008130813
 6 -6.12059085478548  4.48517178137814  0.64153436223622
 6 -7.95641140824082  1.14768561926193 -2.43270094359436
 7 -4.42686693999400 -0.29225741754175  1.07887922672267
 6 -4.31556508400840 -1.61959566116612  0.72693504310431
 6 -3.29063218771877 -2.31913521632163  1.46180054375438
 6 -2.97631080208021 -1.38393128402840  2.60777733383338
 6 -3.63257068446845 -0.05874850255026  2.09505409060906
 6 -3.59282232163216 -1.81419486088609  3.97847054645465
 6 -2.00773596679668 -2.68868627792779  0.62518782428243
 6 -0.87207885138514 -3.50856843744374  1.40730431843184
 6  0.23755885638564 -3.80497433813381  0.56584477917792
 8  0.43918398269827 -3.39891720532053 -0.57766400060006
 8  1.11245809150915 -4.58087770507051  1.28426303360336
 7 -4.81545236153615  2.59904928182818  1.43312354405441
 6 -4.03196528632863  2.36534395609561  2.43988459175918
 6 -3.81123062676268  3.63829233143314  3.22743329952995
 6 -4.61306185888589  4.52933446174617  2.56088535983598
 6 -5.22456856105611  3.91414951015102  1.53106919921992
 6 -2.90123548664866  3.75887326312631  4.37492168156816
 6 -4.80083661426143  5.87254467496750  3.03906341114111
 8 -4.12303235123512  6.44615250325032  3.86397029692969
 7 -6.79908370827083  2.59302919871987 -0.72898455475548
 6 -6.82911562636264  3.94061367856786 -0.39606129482948
 6 -7.73843903030303  4.58501522632263 -1.21253536303630
 6 -8.35204465776578  3.64631156105611 -2.12175111951195
 6 -7.63687257775778  2.32875888468847 -1.79803575007501
 6 -8.14471746264626  5.96660657005701 -1.15718522732273
 6 -9.44849921322132  3.85910630883088 -3.18628326112611
 6 -8.85341679537954  4.24344249044904 -4.54194059805981
 7 -6.31283970297030 -0.12818783648365 -1.14333942594259
 6 -7.36436596619662 -0.05749181778178 -2.09265347604761
 6 -7.57984549174918 -1.32654435803580 -2.74085660826083
 6 -6.70029957875788 -2.22998257005701 -2.01744791049105
 6 -6.02647106250625 -1.43588715381538 -1.04696082648265
 6 -8.52723818161816 -1.59487961396140 -3.89096599279928
 6 -6.14462812991299 -3.60383596749675 -1.93434698979898
 8 -6.57929232473247 -4.53665136353635 -2.63470973607361
 6 -5.04257281938194 -3.57575562816282 -0.83412573237324
 6 -5.37684516191619 -4.62783822492249  0.12653632543254
 8 -5.80058583018302 -4.58852786088609  1.24668103150315
 8 -5.06120581878188 -5.86973817021702 -0.36134927952795
 6 -5.50988855305531 -6.98096995029503  0.49790161996200
 6  2.31355232843284 -4.96800792099210  0.54668862326233
 6  3.42636717171717 -4.03373353425343  1.03379127892789
 6  4.05013440364036 -3.23913678377838  0.22035567056706
 6  3.74594893379338 -2.97869281058106 -1.25939544404440
 6  5.06088251405141 -2.33783883148315  0.74807860666067
 6  6.47369224052405 -2.72365529072907  0.13220468786879
 6  7.59353467706771 -1.72986234173417  0.62668835933593
 6  8.93524434573457 -1.93082791639164 -0.04824260676068
 6  9.54939132083208 -3.29887052745275  0.14426096839684
 6  9.94530510961096 -0.89743998139814  0.56506902240224
 6  11.22098940134013 -0.72122172907291 -0.28458722492249
 6  12.30795848444844  0.30594522202220  0.19447629522952
 6  13.61719417521752  0.48644351425143 -0.59125388858886
 6  14.52085038403840 -0.76032543514351 -0.28091224212421
 6  14.31511745134513  1.80523669526953 -0.15432468726873
 6  15.61976616701670  2.06104413261326 -1.05747074207421
 6  16.11677426182618  3.45109986278628 -0.71677229042904
 6  17.43918916801680  3.80860870247025 -1.48135207040704
 6  17.19913250295030  4.11163605530553 -3.01250347454745
 6  17.99166857295729  5.12128739403940 -0.85454491339134
 1 -2.59289501230123  1.03761803720372  3.57147761616162
 1 -6.51727970677068  5.60272565296530  0.87294628632863
 1 -8.67912832003200  1.28430873377338 -3.24505998479848
 1 -3.76990805560556 -3.26016133153315  1.65623368416842
 1 -1.94675179907991 -1.13274093569357  2.63089436553655
 1 -3.23260303940394 -2.67018017921792  4.21977552155216
 1 -3.69738053075308 -1.04620452485249  5.04815684548455
 1 -4.77230974267427 -2.04530361126113  3.77125107560756
 1 -2.43248856255626 -3.19686920422042 -0.35461608540854
 1 -1.60136796919692 -1.87389650595059  0.42628074967497
 1 -0.57964339783978 -2.84976627222722  2.20125434413441
 1 -1.41453617521752 -4.30682781398140  1.73583538153815
 1 -1.86451656545654  3.26893641804180  4.14703061276128
 1 -2.67759874997500  4.79830703670367  4.58935519321932
 1 -3.24288728372837  3.37753875137514  5.26977198319832
 1 -5.69804286818682  6.64640883528353  2.61669699109911
 1 -10.06458559205921  3.01939259635964 -3.28189144084409
 1 -10.18822962086209  4.80989483358336 -2.79479977067707
 1 -9.72721252105211  4.43303171717172 -5.12363756605661
 1 -8.17347685708571  4.99593933933393 -4.40845080008001
 1 -8.33043289228923  3.50621998079808 -4.90603052785278
 1 -8.33982157175718 -1.02053259615962 -4.77084808310831
 1 -8.45988697169717 -2.69581298639864 -3.91747438443844
 1 -9.51920199969997 -1.37922474587459 -3.42192909960996
 1 -4.11936929432943 -3.73365819241924 -1.33275656255626
 1  2.43872500550055 -6.03941188418842  0.85176113301330
 1  2.19140988438844 -4.77240421652165 -0.43993744334433
 1  3.70469259155916 -4.11573085488549  2.10717572517252
 1  2.76483146984698 -3.27355297639764 -1.38119066006601
 1  3.95036965026503 -1.83525708500850 -1.47333980448045
 1  4.52989516351635 -3.38023175237524 -1.87251617751775
 1  5.01933197409741 -1.14513093709371  0.63442532603260
 1  5.07374590189019 -2.35143677607761  1.86147102740274
 1  6.73903142984298 -3.76059925202520  0.57208509250925
 1  6.31437159755976 -2.65230283928393 -0.97627822332233
 1  7.34497342864286 -0.72342566766677  0.54029127462746
 1  7.44630673357336 -2.06752333543354  1.68500288558856
 1  8.92000610991099 -1.73991226642664 -0.97551088918892
 1  8.77300181888189 -4.09533830523052 -0.08576236863686
 1  10.43427276807681 -3.54220842294229 -0.53341345484548
 1  9.84851391279128 -3.57070816231623  1.28776921962196
 1  9.43390254085409  0.13065879207921  0.58213357715772
 1  10.11532162966297 -1.12174870877088  1.64865440544054
 1  11.84197933923392 -1.57055708760876 -0.28991336453645
 1  10.99411549824983 -0.38179108400840 -1.29626095969597
 1  11.83209424292429  1.30627505670567  0.05021546634663
 1  12.32181700500050 -0.02096090469047  1.27883616381638
 1  13.24634143484348  0.53413784608461 -1.57931016971697
 1  14.78170750905090 -0.82761097379738  0.63930961096110
 1  13.95152072307231 -1.77222623892389 -0.43100942244224
 1  15.46680766916692 -0.73057625582558 -0.94880177267727
 1  13.65947414161416  2.61318593769377 -0.37485927362736
 1  14.64705140544054  1.76364665386539  0.87809502340234
 1  16.27295895169517  1.26100471317132 -0.72052854355436
 1  15.38838442184218  1.81758567136714 -2.12903428312831
 1  15.43708511311131  4.11551692969297 -1.02300429852985
 1  16.36186895699570  3.65396203760376  0.26899680008001
 1  18.04235791719172  2.92547403860386 -1.46381546114611
 1  16.75518623902390  4.98592512141214 -3.35954831463146
 1  18.15835175867587  4.26752626592659 -3.45416002110211
 1  16.64038423862386  3.07712878287829 -3.44530256485649
 1  18.09353540074007  4.99911112861286  0.26341800600060
 1  18.98139566186619  5.39520367256726 -1.39203611801180
 1  17.35053660456046  5.92737224032403 -0.99997405870587
 1 -5.30289559095910 -7.78481791489149 -0.15736927462746
 1 -6.47204163446345 -7.02923000960096  0.83346685418542
 1 -4.77225539413941 -7.03114469006901  1.32992744934493
 8 -7.72588017961796  6.83656015681568 -0.38425620962096
 1 -8.81310960806081  6.22920856575658 -1.99099478227823

