%nproc=4
%Mem=2GB
# td=(NStates=1) iop(3/107=0140000000,3/108=0140000000) iop(3/107=0140000000,3/108=0140000000) CAM-B3LYP/6-31G(d,p) 

TD

0 1
12 -6.80354292639264  0.74998414251425  0.10388800830083
 6 -4.61800890739074 -1.89553797559756  0.45877615461546
 6 -4.22905472087209  2.88094972807281  0.82047492909291
 6 -9.01882458715872  3.02778680278028 -0.14549405110511
 6 -9.26675477307731 -1.86949997959796 -0.59540959965997
 7 -4.66245131703170  0.51575097279728  0.54878391049105
 6 -4.02160942654265 -0.82530223702370  0.64724527992799
 6 -2.44092751135114 -0.49171093029303  0.87954001630163
 6 -2.44357432323232  0.96291644044404  1.13346550905091
 6 -3.83706996989699  1.45021510671067  0.76180095479548
 6 -1.92811909760976  1.46990878677868  2.60283484628463
 6 -1.64825357375738 -0.87719028242824 -0.45415408910891
 6 -0.31793991229123 -1.30789249584958  0.03814288778878
 6  0.59720079927993 -1.30144738163816 -1.11206938073807
 8  0.45281534963496 -0.76921953445345 -2.19316030623062
 8  1.82258254485449 -1.80297059565957 -0.79011393389339
 7 -6.72001374357436  2.60500087008701  0.32491623952395
 6 -5.58910947184718  3.37758640184018  0.62471876807681
 6 -6.02801701690169  4.78165785058506  0.63426829542954
 6 -7.41187190059006  4.75277136763676  0.40005658895890
 6 -7.84786649054906  3.37183599199920  0.21723655505551
 6 -4.83682860316032  5.88194562506251  0.98003567156716
 6 -8.11951351265126  5.98165508560856  0.39671919561956
 8 -7.75731964816482  7.14795641224122  0.44268212501250
 7 -8.72249580308031  0.61118197739774 -0.24842749184918
 6 -9.41005467786779  1.78398313361336 -0.53029408170817
 6 -10.90097672797280  1.38590846194619 -0.65202098329833
 6 -11.06806116361636  0.11265216961696 -0.84058491399140
 6 -9.71439310261026 -0.35003316651665 -0.45477755445545
 6 -12.08566534183418  2.34737093019302 -0.91286593739374
 6 -12.21592471297130 -0.72940650295029 -1.09883801750175
 6 -12.42702956505651 -0.95994816001600 -2.58089088378838
 7 -6.90854733763376 -1.22849541084108  0.06144349984999
 6 -8.10767342894289 -2.26502649934993 -0.22957615561556
 6 -7.41686927202720 -3.61014833723372 -0.29833084318432
 6 -6.16865248644864 -3.44726388728873  0.05426716611661
 6 -5.88044433313331 -2.05200401490149  0.23092927722772
 6 -8.61922044554455 -4.82595997379738 -0.36688950485049
 6 -4.86246245074507 -4.35289108720872  0.17975600130013
 8 -4.83809555825583 -5.47951849014901  0.00145065166517
 6 -3.80124384978498 -3.22239279847985  0.46924157135714
 6 -3.29842335323532 -3.65149132463246  1.84783449644964
 8 -3.78220346044604 -3.75937267206721  2.84484315411541
 8 -1.87846952185219 -3.68427473277328  1.61347128632863
 6 -1.08096661876188 -4.00164525462546  2.81336576177618
 6  2.86152804560456 -2.08707388428843 -1.75007625172517
 6  3.96297006440644 -0.99824682578258 -1.43112864516452
 6  5.10519127452745 -0.98680555195520 -2.06951315291529
 6  5.65281926572657 -2.03827696239624 -3.24896187838784
 6  6.31789561416142  0.01263361046105 -1.72375893439344
 6  7.46978567256726 -0.70326610871087 -1.01548828612861
 6  8.63840640094009  0.25202083668367 -0.69173765426543
 6  9.86555964536454 -0.41109803010301  0.13291498579858
 6  9.56399391569157 -0.70472928762876  1.61954632343234
 6  10.97964029402940  0.68224307850785  0.08253309170917
 6  12.34921019151915 -0.08815750855085  0.30504881608161
 6  13.57710925352535  0.79172644734473  0.41563446184618
 6  14.97240357555756  0.27412069016902  0.66502116421642
 6  14.94273926202620 -0.30436271677168  2.07257718171817
 6  16.00075970437044  1.40539544154415  0.41128433373337
 6  17.22316179427943  0.58837406180618  0.07409053515352
 6  18.44587413481348  1.70944813601360  0.02339219241924
 6  19.87424962606261  1.05455395019502 -0.20172025572557
 6  19.97702750405040  0.08137356765677 -1.54194998619862
 6  20.84131130003000  2.13387480548055 -0.31679677557756
 1 -3.45843648194819  3.72548379937994  1.25723512521252
 1 -9.83470745324532  3.73578266336634  0.10985735183518
 1 -10.14421691329133 -2.58953935323532 -0.63779660556056
 1 -2.06222873967397 -0.95025264306431  1.61413146144615
 1 -1.59533887248725  1.50845132133213  0.62393884728473
 1 -1.04337572127213  1.05942425682568  2.94981569266927
 1 -1.62749092299230  2.42556113251325  2.69006512431243
 1 -2.76667900040004  1.39656754205421  3.48864473357336
 1 -1.90274929522952 -1.43602487548755 -1.00097788458846
 1 -1.71933710271027 -0.14124559745975 -1.10967075787579
 1  0.15849384768477 -0.61781321462146  0.78247411261126
 1 -0.00476419621962 -2.19897623142314  0.62209244134413
 1 -4.08428295869587  6.26837466536654  0.12198715641564
 1 -5.53772405300530  6.83204588048805  1.27087399349935
 1 -4.16438746694669  5.73897285828583  1.99921769406941
 1 -9.42377539163916  5.90629573877388  0.66741036523652
 1 -12.00822037563757 -1.74885575307531 -1.02546697389739
 1 -13.04001021602160 -0.10322392259226 -1.01154879127913
 1 -13.41658948204820 -0.98707082248225 -2.72813993109311
 1 -12.24961192499250 -0.04773735223522 -2.86475864536454
 1 -11.66179300370037 -1.45088840584058 -2.91343795119512
 1 -9.33209239253925 -4.79843639923992 -1.49327155515552
 1 -7.83231844644464 -5.84409442204220 -0.12209186108611
 1 -9.37154443444344 -5.16659862106211  0.41063567306731
 1 -2.86188576997700 -3.09634335923592 -0.26861516831683
 1  3.06482809820982 -3.24690196399640 -1.79120483758376
 1  2.44062835163516 -1.91908782378238 -2.78173840914091
 1  3.55101242894289 -0.29706245464546 -0.58572497089709
 1  4.91559461646165 -1.87443091559156 -3.95984609960996
 1  6.63896747514751 -2.09385806120612 -3.46632785668567
 1  5.36914074147415 -2.99617223152315 -2.92322650645064
 1  6.35245566746675  0.50691602900290 -2.72113473067307
 1  6.19074418381838  0.71904745254525 -1.08437270067007
 1  6.82038321722172 -1.12793099019902 -0.25703398179818
 1  8.03509890829083 -1.47277606790679 -1.43447292319232
 1  8.99507163856386  0.63295389018902 -1.79212199749975
 1  8.31381988008801  0.94399958815882 -0.08403269486949
 1  10.12670511761176 -1.23423086678668 -0.44944210181018
 1  8.67134937923792 -1.44069288498850  1.63066142694269
 1  10.46598266766677 -1.18746262746275  1.87176906830683
 1  8.87097030863086 -0.13994521692169  2.21895320042004
 1  11.26033967176718  0.92587534743474 -0.95585275687569
 1  10.81888163476347  1.35100397599760  1.05863974427443
 1  11.68593613581358 -0.84415685518552  1.17307099039904
 1  12.42573472747275 -0.80044826542654 -0.47883088058806
 1  13.59566443644365  1.55009455445545 -0.42182108670867
 1  13.32377442224222  1.51241549284929  1.32409819921992
 1  15.14545597139714 -0.61570908690869 -0.19480767196720
 1  14.55598549844984  0.70906130163016  2.88572134513451
 1  14.08775604910491 -1.09906757865787  2.33018051615162
 1  15.95299233233323 -0.92508609170917  2.01984846254625
 1  15.73935507040704  1.65556554995500 -0.49541951665167
 1  16.07662169476948  2.32505204070407  1.28968729192919
 1  17.63687500260026 -0.09583641304130  0.85621580828083
 1  17.30390791499150  0.18247641684168 -0.67033841124112
 1  18.39646465356536  2.84385093289329 -0.20280326862686
 1  18.76468646474648  1.95514942184218  1.13146981748175
 1  19.78004056525653  0.36347919411941  0.91324467526753
 1  19.74951326932693  0.55851090069007 -2.45937806300630
 1  20.89072336233623 -0.16815861766177 -1.56629076247625
 1  19.43450617761776 -1.14815253365337 -1.46125420012001
 1  20.72456923552355  3.00393997309731  0.81662241584158
 1  22.05906364666467  1.61350793349335 -0.68165088008801
 1  20.63166981988199  2.96653414061406 -1.25188998529853
 1  0.00311468636864 -4.35419816921692  2.48098644664466
 1 -1.61920160116012 -5.11030830453045  3.48929956655666
 1 -0.98836284958496 -3.28679715681568  3.46619077227723
 8 -11.85244361866187  3.52596739593959 -0.63655546924692
 1 -13.09841035253525  1.73385462556256 -1.04028463346335

