%nproc=4
%Mem=4GB
# td=(NStates=1) iop(3/107=0140000000,3/108=0140000000) iop(3/107=0140000000,3/108=0140000000) CAM-B3LYP/6-31G(d,p) 

TD

0 1
12 -5.54846635323532  1.24761963626363  0.18972757795780
 6 -5.01764215141514 -2.14444290759076 -0.31422828962896
 6 -3.32924171327133  1.20025030983098  2.75436080938094
 6 -6.12458125382538  4.60798406260626  0.58286849564956
 6 -7.91163693079308  1.23168401910191 -2.33117079057906
 7 -4.29140339363936 -0.29822801460146  1.08876021482148
 6 -4.31700522802280 -1.56778047964796  0.76658900850085
 6 -3.27129025352535 -2.39817312011201  1.51493585728573
 6 -2.86237940894089 -1.41643453435344  2.70901745784579
 6 -3.57060448784878 -0.00224285198520  2.13207779297930
 6 -3.38154119351935 -1.86563000440044  4.10106280568057
 6 -2.01989718291829 -2.81488889818982  0.60232553805381
 6 -1.11298294179418 -3.67708528912891  1.35613920192019
 6  0.15084018451845 -3.90794463516352  0.61297949264926
 8  0.54148421272127 -3.55478279187919 -0.47272350655065
 8  1.03265011071107 -4.73068268556856  1.37369197649765
 7 -4.88076889318932  2.59967934483448  1.42420265196520
 6 -3.93564565436544  2.40673809550955  2.42303290659066
 6 -3.75941544524452  3.63076157835784  3.17845840204020
 6 -4.48696924962496  4.60589211751175  2.53799307060706
 6 -5.19160526472647  3.95788388358836  1.48346443874387
 6 -2.71209657275728  3.81126850265026  4.34945913531353
 6 -4.65728225882588  5.97048446894689  2.98290779557956
 8 -3.94671471947195  6.44732262026203  3.79784368426843
 7 -6.78222202210221  2.67939783558356 -0.73957561386139
 6 -6.73852656745675  4.00432004920492 -0.47248893759376
 6 -7.84617980438044  4.64962168696870 -1.22481659115912
 6 -8.33960341364136  3.67705463536354 -2.16942588698870
 6 -7.67807669816982  2.41007701650165 -1.83624957145715
 6 -8.20821381228123  6.16068597799780 -1.13766327512751
 6 -9.33283764706471  3.87264766296630 -3.24582921572157
 6 -8.51872332603260  3.86466461266127 -4.60244664866487
 7 -6.27229564856486 -0.07579259695970 -1.17992308430843
 6 -7.31088061766177 -0.00630669926993 -2.06661087178718
 6 -7.58891639883988 -1.27919962356236 -2.71218374097410
 6 -6.76689623842384 -2.13730330213021 -2.00621678737874
 6 -5.90703911931193 -1.35662922802280 -1.06723285368537
 6 -8.63053851165116 -1.69253937993799 -3.66393328952895
 6 -6.27076074317432 -3.52049763366337 -1.89290284538454
 8 -6.65607000250025 -4.48749644804480 -2.50119638473847
 6 -5.16796535863586 -3.61769982258226 -0.87128944874487
 6 -5.33076055345535 -4.73671911301130  0.14744841664166
 8 -5.67201297289729 -4.51843085118512  1.29246560996100
 8 -5.07374707290729 -5.86926812321232 -0.44322746734673
 6 -5.44725228942894 -6.95025687898790  0.35126695649565
 6  2.27975894909491 -4.99794091429143  0.61066502090209
 6  3.39652418741874 -4.15903606450645  0.90631853165317
 6  4.01599098929893 -3.34155702580258  0.06879051405141
 6  3.68428276717672 -3.16113105440544 -1.37852735723572
 6  5.07306373217322 -2.42647769536954  0.59073287208721
 6  6.54845971727173 -2.81107403260326  0.02763423082308
 6  7.55779110271027 -1.81751110661066  0.60930662116212
 6  9.07065788708871 -1.95524035763576 -0.01290907340734
 6  9.55289167086709 -3.32874351475148  0.30451699399940
 6  9.87587816691669 -0.77860809820982  0.32413492899290
 6  11.28186548894890 -0.90835044194419 -0.18058682488249
 6  12.10353804240424  0.28065269276928  0.06283313091309
 6  13.43023547934794  0.46807167706771 -0.57761252445245
 6  14.41969026802680 -0.79148855145515 -0.38530268116812
 6  14.17550348994899  1.81707787938794 -0.26138539333933
 6  15.48270246064606  2.17489551775178 -0.93877887288729
 6  15.95546813121312  3.57185193799380 -0.59563017621762
 6  17.22630787988799  3.97479532113211 -1.30495443064306
 6  17.01620421012101  4.14105899759976 -2.81789401360136
 6  17.74863426952695  5.34830009530953 -0.76650610951095
 1 -2.76991271407141  1.15033930933093  3.62755322372237
 1 -6.23347132593259  5.59980536093609  0.54041303300330
 1 -8.77128753595360  1.13433373627363 -3.15369084788479
 1 -3.62228329312931 -3.31646696209621  1.97428548934893
 1 -1.78972609650965 -1.35288294989499  2.69025030113011
 1 -2.74899467856786 -2.65030819201920  4.30923446744674
 1 -3.27255804850485 -0.94073397779778  4.67481951175118
 1 -4.50009252095210 -2.22149123002300  3.93185713621362
 1 -2.55830114381438 -3.43239275657566 -0.29612023582358
 1 -1.48088592099210 -1.93465258155816  0.21127924952495
 1 -0.96721215471547 -3.14335563116312  2.33757797649765
 1 -1.47801252285229 -4.67217434863486  1.49945174317432
 1 -1.63650376417642  3.40328985338534  3.99119502920292
 1 -2.74761575167517  4.82104931093109  4.56029228692869
 1 -2.90482347734774  3.18542954045405  5.30980598659866
 1 -5.71389445334533  6.43790798519852  2.64944026542654
 1 -9.99808894239424  3.18930958805881 -3.19106235793579
 1 -9.88433923182318  4.79369321342134 -3.14456474717472
 1 -9.23413321312131  3.98337675167517 -5.41079628192819
 1 -7.74078358775878  4.84422416781678 -4.42809276427643
 1 -8.20942079107911  2.74106346514652 -4.65504542934293
 1 -8.37625521512151 -1.00406094899490 -4.56298729702970
 1 -8.63137412041204 -2.57107051215121 -4.00794343134313
 1 -9.68436851635164 -1.40468729212921 -3.35784269096910
 1 -4.02740009740974 -3.79116394299430 -1.53136642354235
 1  2.63227436043604 -5.90662860586059  0.91269722662266
 1  2.11028177157716 -5.32376935303530 -0.49680312991299
 1  3.93562568486849 -3.97602688448845  2.00350535813581
 1  2.53663865056506 -3.51613723482348 -1.44051659265927
 1  3.88462307560756 -2.14286784608461 -1.83806627712771
 1  4.32209438343834 -3.70997472667267 -2.08435736163616
 1  4.84834487538754 -1.24119054305431  0.32865474897490
 1  5.04680320762076 -2.33871550395039  1.74238911921192
 1  6.69582710941094 -3.88169136123612  0.19572745674567
 1  6.64361452185218 -2.67016462546255 -0.88761935743574
 1  7.38296722802280 -0.72092541764176  0.45850309580958
 1  7.70458256115612 -1.87309389248925  1.76042042734273
 1  8.94889899919992 -1.90210848604861 -1.04931826992699
 1  9.01435595429543 -4.29300807220722 -0.17944173657366
 1  10.75813515431543 -3.53254745684568  0.07553744024402
 1  9.56714577597760 -3.58380947244724  1.35484592729273
 1  9.42230138073807  0.12267799399940 -0.16067070327033
 1  9.92388248574857 -0.75085161906191  1.41564110411041
 1  11.75419056035603 -1.79071910381038  0.20714634143414
 1  11.39387547424742 -0.94976788168817 -1.36609794339434
 1  11.46590762426243  1.06977140634063 -0.29691924712471
 1  12.24479930323032  0.36202739413941  1.27648592879288
 1  13.27829463016302  0.39460389268927 -1.70451268996900
 1  14.88367770607061 -0.72756096879688  0.53227890789079
 1  14.04589016001600 -1.82432144844484 -0.51043736523652
 1  15.30034102250225 -0.63449664786479 -0.90479737223722
 1  13.48366656085609  2.60671529062906 -0.28662044974497
 1  14.51207790809081  1.73047333653365  0.74426164006401
 1  16.17790944674467  1.46524513721372 -0.85834232493249
 1  15.29152473587359  2.30869478227823 -2.07743912361236
 1  15.33972537713771  4.45857123512351 -0.90303230133013
 1  16.07421019111911  3.71416805820582  0.42509240964096
 1  18.16693037443745  3.42297378857886 -0.92029110871087
 1  16.02964368476848  4.74321084998500 -2.91294365416542
 1  17.87742366586659  4.58529804310431 -3.37126173127313
 1  16.66741694189419  3.24385545554555 -3.32715074967497
 1  17.91475752295229  5.20234145164516  0.34871653585359
 1  18.80480800310031  5.58718287048705 -1.07699461386139
 1  16.87529908080808  6.08968847194719 -0.95593965526553
 1 -4.83472877427743 -7.88266769986999 -0.17423096079608
 1 -6.44484891519152 -7.17907499409941  0.25432894039404
 1 -5.08840700930093 -6.80264183978398  1.35538999559956
 8 -7.71735932753275  6.94311081188119 -0.39839762376238
 1 -9.09947824492449  6.35111075597560 -1.65990167296730

