%nproc=4
%Mem=2GB
# td=(NStates=1) iop(3/107=0140000000,3/108=0140000000) iop(3/107=0140000000,3/108=0140000000) CAM-B3LYP/6-31G(d,p) 

TD

0 1
12 -6.74372694479448  0.55099424352435  0.25361298079808
 6 -4.53942104860486 -2.00269869166917  0.48555883288329
 6 -4.31042285768577  2.89689132223222  0.75222810441044
 6 -9.12532523722372  2.93558758285829 -0.21255075677568
 6 -9.33842193979398 -1.83641667126713 -0.60340039873987
 7 -4.68019309120912  0.39389878757876  0.74996402850285
 6 -3.94592185778578 -0.76282598939894  0.71040159555956
 6 -2.50615403400340 -0.42515427462746  0.99382144444444
 6 -2.44851481728173  1.11013116191619  1.05000716321632
 6 -3.88185444834483  1.55465555075508  0.82213698839884
 6 -1.91948823452345  1.53888568446845  2.52745730853085
 6 -1.52400114851485 -0.93495605900590 -0.22567124082408
 6 -0.05091320962096 -1.07182888948895  0.23451252475248
 6  0.81865294449445 -1.10764800170017 -1.06729490329033
 8  0.57868793689369 -0.93904651715172 -2.25787677787779
 8  1.97196748334833 -1.76752705130513 -0.62112703520352
 7 -6.68711045324532  2.59006937693769  0.38058180608061
 6 -5.48344890579058  3.33786242944294  0.54533082928293
 6 -6.01065528072807  4.83198288308831  0.52947781638164
 6 -7.40029074247425  4.81463755425542  0.37491407470747
 6 -7.87229893379338  3.41858066646665  0.15820065146515
 6 -5.06993191349135  5.88067549804981  0.70677834583458
 6 -8.23604516581658  6.03223014311431  0.02631215491549
 8 -7.71424534073407  7.14488610521052  0.18226608340834
 7 -8.85798935243524  0.53426428562856 -0.27615026412641
 6 -9.62778645104511  1.64972970827083 -0.23396444874487
 6 -11.14155078537854  1.34202407350735 -0.70190597179718
 6 -11.04456881438144 -0.09555865146515 -0.73089394489449
 6 -9.72806446974698 -0.55296345954595 -0.46544862156216
 6 -12.06234300960096  2.30651684478448 -0.88340299109911
 6 -12.08517163766377 -0.89737329962996 -1.02604073777378
 6 -12.43245010711071 -0.90661282648265 -2.56207900260026
 7 -6.98124460736074 -1.41529409070907  0.20461781728173
 6 -8.07899056065606 -2.22742273897390 -0.20119331733173
 6 -7.56790437553755 -3.64440176257626 -0.26383739383938
 6 -6.13809943114311 -3.63649281018102  0.05368710811081
 6 -5.86098238693869 -2.16272508700870  0.28113429772977
 6 -8.56361488498850 -4.84431180898090 -0.50930374627463
 6 -5.07397360186019 -4.34554035213521  0.27358538423842
 8 -4.66942869156916 -5.53274381268127 -0.01329082248225
 6 -3.99993371877188 -3.36249680888089  0.46024067126713
 6 -3.30877438833883 -3.74592076757676  1.86902661566157
 8 -3.85464070417042 -3.91867860266027  2.82003067286729
 8 -1.91708338323832 -3.63711001630163  1.59623956315632
 6 -1.13941246334633 -3.74636972707271  2.87676210141014
 6  3.14499639243924 -1.94807998489849 -1.56050729482948
 6  4.11249501690169 -0.92585958705871 -1.22937847014701
 6  5.18382913831383 -0.74735160656066 -2.10351655325533
 6  5.10238422222222 -1.42279541424142 -3.44470145234523
 6  6.22032585718572  0.31030337743774 -1.83582014051405
 6  7.54860355435544 -0.30524630673067 -1.39597633493349
 6  8.41593415371537  0.71283691829183 -0.59328780928093
 6  9.74882797219722  0.03454653435344  0.06068776307631
 6  9.46191370767077 -0.72800161486149  1.40388475727573
 6  10.93538586858686  0.90826568076808  0.24408924732473
 6  12.34801007150715  0.05687699489949  0.38813712491249
 6  13.52867441004100  1.03727100180018  0.62844574297430
 6  14.85287162236224  0.19626290439044  0.69950461256126
 6  15.06386137423742 -0.49307158765877  1.99242916691669
 6  16.09976960536054  1.19476437843784  0.27771097639764
 6  17.50790026812681  0.29147437183718  0.22251537763776
 6  18.45241478887889  1.33628081928193 -0.19533968076808
 6  19.86060826192619  0.63313180798080 -0.32326240994099
 6  20.07303710501050 -0.04575914561456 -1.54489028022802
 6  21.02557972687269  1.64760617861786 -0.00448554445445
 1 -3.45862650095010  3.61763301430143  0.87866726842684
 1 -9.94399838233823  3.65035412051205 -0.22944657855786
 1 -10.20605309690969 -2.68044844414441 -1.05876870277028
 1 -2.18551106790679 -1.08500611841184  1.81799184748475
 1 -1.68069740834083  1.30372084828483  0.24739119251925
 1 -0.96106749044904  1.49561787618762  2.78176888798880
 1 -1.81172934683468  2.46812538893889  2.92440855865587
 1 -2.14544687718772  0.86895478077808  3.74091996109611
 1 -2.03544256455646 -2.11041231423142 -0.54031181798180
 1 -1.57732290129013 -0.08087956085608 -1.01080087088709
 1  0.47386538483848 -0.07492892619262  1.00623648884889
 1  0.16262254245425 -2.09073540734073  0.73682391449145
 1 -4.14545907630763  5.58117594549455  0.14365932363236
 1 -5.68040832143214  6.57772044794480  0.51183808990899
 1 -5.07440846904690  6.29410837183718  1.86765453775378
 1 -9.43489650375038  5.87888299749975  0.08681230543054
 1 -12.16905645924592 -1.74078494599460 -0.50399482668267
 1 -12.99571578657866 -0.36232983318332 -0.94799243564356
 1 -13.21244906800680 -1.10786290169017 -3.14308142524252
 1 -12.39802676647665 -0.32104468296830 -2.96958912841284
 1 -11.57323414781478 -1.25998931593159 -3.25402200960096
 1 -9.00196938023802 -4.82209876547655 -1.67191941994199
 1 -8.12585780038004 -5.73409342194219 -0.37832748464846
 1 -9.52629990999100 -4.87485944714471 -0.18248363886389
 1 -2.83419300070007 -3.50135386028603 -0.26102440924092
 1  3.27819943534353 -3.06858413221322 -1.43979969706971
 1  2.71525581438144 -1.61094700970097 -2.43378361366137
 1  4.05500282798280 -0.59045179357936 -0.10454685308531
 1  4.05326838383838 -1.22724619711971 -3.84401451645165
 1  6.14672825122512 -1.05725440084008 -4.13169439333933
 1  5.06231005840584 -2.66479909420942 -3.14146833063306
 1  6.32399282118212  0.80233557095710 -2.89905252245224
 1  6.29596470587059  1.14714026182618 -1.15615987938794
 1  7.41119229812981 -1.18177637473747 -0.64982326072607
 1  7.95265066346635 -0.59381817211721 -2.15923539943994
 1  8.98194032543254  1.58234882968297 -1.07766055135514
 1  7.76302480058006  1.31244643284328  0.06755246364636
 1  10.32339478657866 -0.77873531723172 -0.72247940554055
 1  8.66560880518052 -1.28662747844784  1.35678403920392
 1  10.13340941034103 -1.31923580478048  1.93215510691069
 1  9.50331354295430  0.07732651025103  2.18012931803180
 1  11.36981061886189  1.63628638853885 -0.69513668526853
 1  10.96195594219422  1.53047192279228  1.20103398369837
 1  12.34033157535753 -0.81169360886089  1.10368405170517
 1  12.58530068406841 -0.59688790939094 -0.63675667316732
 1  13.49952482248225  1.44918446344634 -0.16060496509651
 1  13.36646869166917  1.41790604190419  1.31016680608061
 1  14.79845127092709 -0.52642015801580 -0.10272846404640
 1  15.26506640654065  0.50017041254125  2.89334210721072
 1  14.00025729922992 -1.32879055095510  2.60270776887689
 1  16.10255728882888 -1.21543512661266  1.68974545224523
 1  15.98317945284528  1.65456544994499 -1.03821379607961
 1  16.14701873447345  2.36521605710571  1.04824314751475
 1  17.57479879497950 -0.18089491889189  1.22004219091909
 1  17.39626715091509 -0.37897972877288 -0.58208958635864
 1  18.27708271537154  1.84382092989299 -1.28079106740674
 1  18.68737873397340  2.08900280718072  0.58273494399440
 1  19.74343690489049 -0.27260441424142  0.50769412021202
 1  19.81482980098010  0.91117616721672 -2.37361948714872
 1  21.21078536853685 -0.30707250905091 -1.87341147454745
 1  19.32080480748075 -0.90423814221422 -1.60498857355736
 1  20.93183996259626  2.16875645474548  0.87244799839984
 1  21.94727246754676  1.13485006770677 -0.05025774077408
 1  20.89167582048205  2.54480196739674 -0.58459325562556
 1  0.10455483038304 -4.14233698309831  2.40607895589559
 1 -1.77534721572157 -4.24385165886589  3.61587222382238
 1 -0.83585759905991 -2.63691216831683  3.14584873807381
 8 -11.77643601790179  3.53137793699370 -0.77066888058806
 1 -12.94759527102710  2.04091533163316 -1.27912851785178

