%nproc=4
%Mem=4GB
# td=(NStates=1) iop(3/107=0140000000,3/108=0140000000) iop(3/107=0140000000,3/108=0140000000) CAM-B3LYP/6-31G(d,p) 

TD

0 1
12 -5.61173267986799  1.23424829912991  0.26048465366537
 6 -5.00923131033103 -2.19768823212321 -0.35881274807481
 6 -3.37227601670167  1.18337862266227  2.74757013031303
 6 -6.32646144184418  4.49053231743174  0.73443365216522
 6 -8.05525129222922  1.19094994569457 -2.32257993149315
 7 -4.42264651795180 -0.33376156795680  1.09942128092809
 6 -4.23517704520452 -1.63743744534453  0.68447079667967
 6 -3.28953207770777 -2.31509481228123  1.52834719841984
 6 -3.04991816281628 -1.25114800570057  2.72622917901790
 6 -3.62338976637664  0.01878925122512  2.11758634383438
 6 -3.55431847124712 -1.80260370177018  4.09643234263426
 6 -2.04902009520952 -2.72618002730273  0.68976428192819
 6 -1.03419506300630 -3.47365494609461  1.46630021802180
 6  0.25066016651665 -3.85412925362536  0.62439063376338
 8  0.45194525882588 -3.53878119171917 -0.57438367256726
 8  1.09247609330933 -4.61739135643564  1.30499510681068
 7 -4.85411622792279  2.55716509340934  1.49335956765677
 6 -3.98246033583358  2.41659908160816  2.42152275557556
 6 -3.73802330603060  3.62489099129913  3.09843039923992
 6 -4.47762831553155  4.62916444474447  2.55544481578158
 6 -5.27837394159416  3.90185828102810  1.46573266556656
 6 -2.67012237533753  3.83919129492949  4.30319450885089
 6 -4.56125265586559  6.02016943744374  2.75740524532453
 8 -3.98620866886689  6.75124301230123  3.66581048094810
 7 -6.92587638753875  2.57556745254525 -0.63497515381538
 6 -7.04742745754575  3.83456307350735 -0.25928761746175
 6 -8.00456564296430  4.57303402820282 -1.09165327482748
 6 -8.45660511381138  3.68490542044204 -2.04154309870987
 6 -7.79867875837584  2.47117312611261 -1.76732267876788
 6 -8.25458844974498  6.00991090049005 -1.19862937173717
 6 -9.48772313561356  3.85508590679068 -3.08965359815982
 6 -8.87491894559456  4.12974112031203 -4.37400380438044
 7 -6.37865628462846 -0.13182820052005 -0.97834292629263
 6 -7.41396092569257 -0.02514858345835 -2.03730794149415
 6 -7.52978048524853 -1.26496820042004 -2.72810533313331
 6 -6.59274882368237 -2.06487605940594 -2.13354952065206
 6 -5.98456687208721 -1.36805037013701 -1.13243937433743
 6 -8.45147060486049 -1.67030715671567 -3.69678657485749
 6 -6.11919558665867 -3.51778736263626 -2.06554010911091
 8 -6.41712610811081 -4.50795849424942 -2.72458872397240
 6 -5.01572013411341 -3.49622767536754 -1.01242356215622
 6 -5.32765024242424 -4.61593703480348  0.01364503630363
 8 -5.76765253685369 -4.38211721982198  1.14146050945095
 8 -4.92516221442144 -5.85072626902690 -0.43894703930393
 6 -5.35730329452945 -6.89990184348435  0.44847667746775
 6  2.31271224442444 -5.13757487768777  0.74217817221722
 6  3.38739327432743 -4.22783294419442  1.02865076487649
 6  4.03415280548055 -3.40202307240724  0.13442707770777
 6  3.69773411231123 -3.19581452275228 -1.32140164466447
 6  5.19822624842484 -2.55505055265527  0.59239303810381
 6  6.56868173947395 -2.75273819901990 -0.06928546114611
 6  7.73174849844985 -1.89052840834083  0.41555724622462
 6  9.08086890819082 -2.07885271887189 -0.19053683618362
 6  9.74142052375238 -3.53092373277328  0.04199074137414
 6  9.99381996109611 -0.97529776717672  0.49604211971197
 6  11.31851915431543 -0.90503010991099 -0.30648941514151
 6  12.21900958955895  0.35339996749675  0.13183003060306
 6  13.59580203600360  0.57042191209121 -0.59314407760776
 6  14.64189248824882 -0.61877127972797 -0.07042119301930
 6  14.08757469706971  1.88431460306031 -0.19573882868287
 6  15.49701389178918  2.10001803000300 -0.87702269726973
 6  15.99115169956996  3.50697545034503 -0.57254786798680
 6  17.23519876897690  3.93184102570257 -1.30288422362236
 6  17.09322191189119  3.83608850055005 -2.88866109030903
 6  17.71222062816281  5.35247051235124 -0.83707316621662
 1 -2.46210193299330  1.16260053545354  3.50869133753375
 1 -6.43054103290329  5.53941932233223  0.82199119081908
 1 -8.92316272347235  1.10659096199620 -2.89857533633363
 1 -3.78810987578758 -3.23473878927893  1.98200626142614
 1 -1.93010013391339 -0.86412407400740  2.95299657575758
 1 -3.10891067016702 -2.67031019221922  4.43305684968497
 1 -3.30852164486449 -1.12182208660866  5.02952498229823
 1 -4.62895540724072 -1.93330241114111  3.96878082858286
 1 -2.27684299799980 -3.27024654195420 -0.06583720752075
 1 -1.64003183558356 -1.70455957225723  0.43240136173617
 1 -0.83846928042804 -2.98135943154315  2.35826004470447
 1 -1.17437215881588 -4.41952908410841  1.61084288228823
 1 -1.77822793659366  3.59217874227423  3.94742065176518
 1 -2.80459144924492  4.90280748674868  4.77425368306831
 1 -2.81590458545855  3.29442043954395  5.18715372137214
 1 -5.45018808270827  6.59029322372237  2.13721904330433
 1 -10.08245737923792  2.98410906800680 -3.04391764346435
 1 -10.18359915781578  4.67666151025102 -2.69123941464146
 1 -9.68755855565557  4.39931834583458 -5.11156635893589
 1 -8.14333384278428  4.99944969036904 -4.39411936693669
 1 -8.44243409240924  3.29080843964396 -4.87519744454445
 1 -8.25185277487749 -1.02174271717172 -4.75179617791779
 1 -8.51859284228423 -2.71943534863486 -3.94115675267527
 1 -9.54658473797380 -1.45699252265227 -3.59691659835984
 1 -3.96090344774477 -3.78870369696970 -1.63400668756876
 1  2.53308444144414 -6.21022896589659  1.20729668656866
 1  2.24743548694870 -5.19087606370637 -0.19906335593559
 1  3.96214833713371 -4.15482476427643  2.04790979857986
 1  2.83898888558856 -3.63932955405541 -1.49113165416542
 1  3.46303091639164 -2.03432699199920 -1.42657512801280
 1  4.41362353635364 -3.40820454965497 -2.24486341224122
 1  4.93108314921492 -1.60776720072007  0.20541242474247
 1  5.41835036233623 -2.48697032943294  1.69403428372837
 1  7.19437696439644 -3.75606879897990  0.14788267226723
 1  6.50195035543554 -2.75722333133313 -1.31116171167117
 1  7.37972690399040 -0.96300962606261  0.59344659015902
 1  7.72109421232123 -2.37474405750575  1.59241362666267
 1  8.92021613091309 -1.83910218541854 -1.12690602870287
 1  8.93931845054505 -4.36397516891689 -0.33971776417642
 1  10.68401774257426 -3.68137233933393 -0.50373048654865
 1  9.68925798719872 -3.64119521102110  1.07360780348035
 1  9.32091124172417 -0.07283155695570  0.58502386618662
 1  10.03095319281928 -1.35486202010201  1.47416695669567
 1  12.01218635993599 -1.80055008690869 -0.22467684088409
 1  11.14629071577158 -0.79763266816682 -1.43523485708571
 1  11.53039407290729  1.14390882008201  0.08226867166717
 1  12.41684650795079  0.22198338973897  1.13278155835584
 1  13.58694549524952  0.42092652495249 -1.67775001370137
 1  14.81493083138314 -0.52073028572857  1.04286996699670
 1  14.27671324232423 -1.73392240854085 -0.04150047154715
 1  15.57644863326333 -0.63969716791679 -0.63362025452545
 1  13.53185137933793  2.73067768686869 -0.52142393009301
 1  14.35038173847385  1.92233252245225  0.61454866876688
 1  16.09557121292129  1.37261587428743 -0.50381687238724
 1  15.46934251765177  1.92173608640864 -2.02967434713471
 1  15.02062346694670  4.11331670967097 -0.71065306340634
 1  16.00210298039804  3.73003964536454  0.64383428382838
 1  18.08451213261326  3.36825831703170 -0.78189726932693
 1  16.45924664506450  4.82575910481048 -3.32437479727973
 1  18.07525344884489  4.06485599889989 -3.21630623572357
 1  16.85810601080108  2.84550562056206 -3.04152218681868
 1  17.78339438663866  5.33379459695970  0.23217488168817
 1  18.39144666696670  5.83334748694869 -1.58869578397840
 1  16.87546909780978  6.13445294839484 -1.05411947324732
 1 -4.97455275667567 -7.93043247634763 -0.06829036673667
 1 -6.47387181748175 -7.00312739933993  0.40945445294530
 1 -4.94085225382538 -6.76481805740574  1.62156661326133
 8 -7.77795538713871  6.88701520232023 -0.55815359935994
 1 -8.69588788588859  6.35082072697270 -2.12366804960496

