%nproc=4
%Mem=2GB
# td=(NStates=1) iop(3/107=0140000000,3/108=0140000000) iop(3/107=0140000000,3/108=0140000000) CAM-B3LYP/6-31G(d,p) 

TD

0 1
12 -6.74372694479448  0.64642378647865  0.19610723022302
 6 -4.52814992149215 -1.95515393719372  0.43379365636564
 6 -4.17412922832283  2.89081071417142  0.90371325292529
 6 -8.86864956965697  3.22746677077708 -0.21419092079208
 6 -9.29334743234324 -1.64027705730573 -0.47221728042804
 7 -4.55058012991299  0.45879527722772  0.56677570967097
 6 -3.96391365696570 -0.86255596239624  0.61391194659466
 6 -2.40219363796380 -0.46197795699570  0.78907096939694
 6 -2.39189915571557  1.12518266706671  0.96969913241324
 6 -3.87765402830283  1.46757684288429  0.70831560626063
 6 -2.10434672037204  1.47242903880388  2.46556111891189
 6 -1.55573432183218 -1.04367693109311 -0.33528220192019
 6 -0.21851997029703 -1.30469217581758  0.17574664816482
 6  0.90526160536054 -1.42999023592359 -0.94441261506151
 8  0.91991205930593 -1.03439605210521 -2.11648263846385
 8  1.84170445704570 -2.44691499009901 -0.33081800430043
 7 -6.65981772397240  2.61618198819882  0.35158890679068
 6 -5.56169673057306  3.31648029122912  0.65396169236924
 6 -5.89193340854085  4.78530821562156  0.63938880748075
 6 -7.27393810721072  4.87810390089009  0.49221580488049
 6 -7.68560026392639  3.52131093949395  0.23019785118512
 6 -5.04625954625462  5.88080551105110  1.00436810481048
 6 -8.13017457875788  6.01628854895490  0.52409193289329
 8 -7.66294021022102  7.16145776237624  0.80986884368437
 7 -8.62225577907791  0.73468432763276 -0.36225887498750
 6 -9.29109278167817  1.81819655495550 -0.41596264856486
 6 -10.83059969026903  1.56908677977798 -0.77553333453345
 6 -10.91373573107311  0.24834573897390 -0.85702655815582
 6 -9.62994465776578 -0.17413557675768 -0.53188526522652
 6 -11.83307008230823  2.53484967806781 -0.85910056085609
 6 -12.20070319081908 -0.42833639593959 -1.24156228992899
 6 -12.22449931203120 -0.69600176537654 -2.74854764946495
 7 -6.99006548944894 -1.35136769806981  0.01641899739974
 6 -8.08091075267527 -2.22802279897990 -0.32708590659066
 6 -7.50903848894890 -3.56667398979898 -0.38711972207221
 6 -6.37037265846585 -3.63308246914691 -0.08474673527353
 6 -5.87793408210821 -2.28103691819182  0.23272945724572
 6 -8.47805632913291 -4.84353173097310 -0.79635245114511
 6 -5.14035023952395 -4.29835563366337  0.12417044274427
 8 -4.76989873857386 -5.49899043734373 -0.19206870027003
 6 -4.04912863826383 -3.35093565276528  0.35374002120212
 6 -3.33543705460546 -3.66961313681368  1.83344305730573
 8 -3.79853509360936 -3.98671540634063  2.91240991079108
 8 -2.04269594449445 -3.58188449374938  1.74149408860886
 6 -1.09809833193319 -4.09382447254726  2.93420784598460
 6  2.95105699849985 -2.57914309120912 -1.30570181428143
 6  4.15455922332233 -1.60019702080208 -1.00200573287329
 6  5.11137189258926 -1.53885075647565 -1.85248144974497
 6  5.32836682048205 -2.31014414911491 -3.18781576377638
 6  6.11252507710771 -0.29312696559656 -1.50481704020402
 6  7.46637533153315 -0.97078286038604 -0.93683042034203
 6  8.47557011731173  0.22973860846085 -0.62440092059206
 6  9.74867795719572 -0.36258317861786  0.00325201950195
 6  9.35171268756876 -0.89079789448945  1.44877924672467
 6  10.76314864486449  0.58555340954095 -0.04681984358436
 6  12.04388965946595  0.25461676887689  0.29242755395540
 6  13.28421996459646  1.17613488818882  0.24218711711171
 6  14.73251958715872  0.67353063116312  0.42932759485949
 6  14.74727971607161  0.02986070557056  1.83122304630463
 6  15.90476010441044  1.62493739573957  0.27760096539654
 6  17.26331580968097  0.93382860726073  0.07927105320532
 6  18.51985153255326  1.59626681788179 -0.26479662646265
 6  19.72734493559356  1.16123461826183 -0.36064614831483
 6  19.95095489678968  0.39871530183018 -1.56972276347635
 6  20.94091126002600  2.22437385538554 -0.00915601150115
 1 -3.72022266056606  3.65775702670267  1.28915831753175
 1 -9.39563354585458  4.03131221632163 -0.66076971087109
 1 -10.12979547114711 -2.22251265056506 -0.80407323322332
 1 -2.03646616341634 -0.88613623142314  2.04212426072607
 1 -1.55601494009401  1.45484596079608  0.37905435883588
 1 -0.82903428712871  1.65086340074007  2.62535324642464
 1 -2.38997717161716  2.85405398179818  2.74966108390839
 1 -2.39413174567457  0.78986687198720  3.51932780188019
 1 -1.91611063136314 -1.77326859985999 -1.03080086688669
 1 -1.35484065306531 -0.27824929782978 -1.34669446024602
 1  0.41392939123912 -0.46940837413741  1.08308417361736
 1 -0.42417613741374 -2.10527686148615  0.87088732083208
 1 -4.12947747814781  5.61181900980098  0.52465742344234
 1 -5.24571485208521  6.81173384928493  0.68858576467647
 1 -4.62757378557856  5.63732269326933  2.24448222052205
 1 -9.25256827092709  6.05843095229523  0.02652627682768
 1 -12.02027158075808 -1.72372323982398 -0.85251967916792
 1 -13.00055627062706  0.08638503830383 -1.03557119351935
 1 -12.93841166426643 -1.59839195459546 -3.28848596569657
 1 -12.53518048184818  0.54193161466147 -3.30035220472047
 1 -11.43214003840384 -1.15540885788579 -3.14716132353235
 1 -8.68789797309731 -4.91900845644564 -1.74147637563756
 1 -7.84364957955796 -5.77560757335734 -0.55716536843684
 1 -9.53657093709371 -5.41960392159216 -0.16260165066507
 1 -3.18144772617262 -3.57806153105311 -0.34895320212021
 1  3.33364497989799 -3.72086936073607 -0.91436715381538
 1  2.93080736953695 -2.59944585958596 -2.28666890219022
 1  4.02902022972297 -1.02998574697470 -0.11674807320732
 1  4.58186124312431 -1.90368384088409 -3.92156227122712
 1  5.87816139453945 -1.97717639303930 -4.05168639253925
 1  5.51399522692269 -3.11875448974897 -2.78531271507151
 1  6.33619404130413  0.32504784218422 -2.61474409160916
 1  5.85192030143014  0.49359490729073 -0.62338660206021
 1  7.33945512441244 -1.45501369846985  0.19613133473347
 1  7.86306170457046 -2.14690348064806 -1.44217369326933
 1  8.97440957235724  0.80826142094209 -1.55643842914291
 1  8.07533603170317  1.13869905810581  0.27078278667867
 1  10.02805525262526 -1.43132057575758 -0.44786194379438
 1  8.40289253355336 -1.70185900160016  1.86219458025803
 1  10.37394346374638 -1.55176905810581  1.43301519291929
 1  9.36629984158416 -0.19486070847085  1.91674297939794
 1  10.75622926072607  1.21148390829083 -1.17121429302930
 1  10.44163390999100  1.75716459205921  0.56716059635964
 1  12.09719726192619  0.04402196269627  1.35315899919992
 1  12.30712286628663 -0.74008222882288 -0.24479747724772
 1  13.12355722572257  1.80589013401340 -0.77611651625163
 1  13.44194623942394  2.09911416271627  1.09926571597160
 1  14.96861828762876 -0.20672818881888 -0.13464165536554
 1  14.06593649354936  0.65598599409941  2.53994676767677
 1  14.32952022552255 -1.22863053495350  1.80100759885989
 1  15.90716774987499 -0.09654323742374  2.08774525222522
 1  15.71357249214921  2.04556454985499 -0.57393736843684
 1  16.10107414001400  2.20268980448045  1.19479780298030
 1  17.29332064716472  0.32805597619762  0.95081526822682
 1  16.98673619781978  0.10582875207521 -0.61669304670467
 1  18.79195420252026  2.22471901970197 -1.22612560086009
 1  18.64962495859586  2.62352625952595  0.21471814231423
 1  20.09154171537154  0.34505735193519  0.41095444624462
 1  19.98339665766576  1.11485653525353 -2.36392851805181
 1  21.12598688868887 -0.20935273707371 -1.80655478887889
 1  19.16586931393139 -0.36439415781578 -1.83968204290429
 1  20.81199797839784  2.76170574967497  0.97877863146315
 1  21.83204094439444  1.84291087378738  0.16455374037404
 1  20.81089774267427  2.98735622282228 -1.00122491879188
 1 -0.44828045314532 -3.65313806320632  2.07530587858786
 1 -1.17941762276228 -5.09717699139914  3.31348198479848
 1 -1.28378239153915 -3.36915539263926  3.92988714191419
 8 -11.86371474577458  3.82994779397940 -0.78128994269427
 1 -12.91905241674167  2.13899513961396 -1.16422702770277

