%nproc=4
%Mem=4GB
# td=(NStates=1) iop(3/107=0140000000,3/108=0140000000) iop(3/107=0140000000,3/108=0140000000) CAM-B3LYP/6-31G(d,p) 

TD

0 1
12 -5.58853035963596  1.23914878917892  0.30104871007101
 6 -5.02101248844884 -2.22544100740074 -0.28993586038604
 6 -3.33843263236324  1.17827811261126  2.70381575487549
 6 -5.97696649234924  4.60054331853185  0.53049325812581
 6 -7.98740450755075  1.16835768646865 -2.33147082058206
 7 -4.45478973227323 -0.32840103190319  1.10452179097910
 6 -4.24011753925393 -1.64406810841084  0.69694204380438
 6 -3.23798692319232 -2.38928223102310  1.53701806550655
 6 -2.96070924192419 -1.40588347924792  2.68991554765477
 6 -3.54676210361036 -0.06074870257026  2.20021460666067
 6 -3.46525956535654 -1.87754119551955  4.05749844924492
 6 -1.90041523472347 -2.60831824112411  0.69795510101010
 6 -0.92034367786779 -3.51543912451245  1.45687927592759
 6  0.30587568806881 -3.78829266996700  0.64433262796280
 8  0.55568563286329 -3.50238755235524 -0.54830106430643
 8  1.08019486518652 -4.79112873017302  1.10816542384238
 7 -4.85323613991399  2.59168854575458  1.38187841954195
 6 -3.91539362916292  2.39166658835884  2.35685628892889
 6 -3.65953545724572  3.63025152735274  3.15662621882188
 6 -4.37054760746075  4.61172270057006  2.45540481178118
 6 -5.08036414061406  3.99041713691369  1.40035612791279
 6 -2.80073543664366  3.71370874667467  4.40860504990499
 6 -4.58310484108411  6.10344776527653  2.87590709550955
 8 -3.82387243524352  6.64468235623562  3.68518241814181
 7 -6.75885968586859  2.68925882168217 -0.77911956825683
 6 -6.80327304210421  4.02661227842784 -0.36152784148415
 6 -7.85008019441944  4.69104582938294 -1.25484959445945
 6 -8.41260071337134  3.66986391629163 -2.09237818221822
 6 -7.66162505300530  2.45172118091809 -1.78270421692169
 6 -8.31612460336034  6.01276118551855 -1.20620012881288
 6 -9.44670903420342  3.82138253645364 -3.20833546634663
 6 -8.88095954965497  4.19514766096610 -4.71103750775078
 7 -6.33546196519652 -0.10043506120612 -1.06453154515452
 6 -7.31027055665567 -0.01396746534653 -2.05306951765177
 6 -7.57505501270127 -1.32830453405341 -2.58803132573257
 6 -6.67592714151415 -2.22901247304730 -1.95092125782578
 6 -5.96830524592459 -1.43428699379938 -0.98874500490049
 6 -8.62341779957996 -1.59467959395940 -3.64009090529053
 6 -6.22477614471447 -3.56903248714872 -1.95298885398540
 8 -6.62823721922192 -4.50511821022102 -2.65213147824783
 6 -5.09049761186119 -3.59448750135013 -0.84346666646665
 6 -5.33476095349535 -4.68349379047905  0.19723339513951
 8 -5.80336610821082 -4.55390439853985  1.35475183858386
 8 -5.08479817801780 -5.82332352875287 -0.29611275587559
 6 -5.53060062426243 -6.95819767306731  0.54168599839984
 6  2.40793176637664 -5.08543966416642  0.47144109850985
 6  3.44469900490049 -4.22281244214421  0.89077697749775
 6  4.03249263946395 -3.32430530063006  0.04596823182318
 6  3.68818315721572 -3.11668660996100 -1.43432293679368
 6  5.21048747454746 -2.37965301290129  0.52430622942294
 6  6.55422029332933 -2.73089601480148 -0.07687622022202
 6  7.62484780838084 -1.94686404190419  0.49335502600260
 6  8.95662648394839 -2.06071090469047 -0.13543132563256
 6  9.51690807250725 -3.45830647104710  0.00973751605161
 6  9.88213879297930 -0.93560379777978  0.36434895039504
 6  11.30557786018602 -0.85539514641464 -0.34553331953195
 6  12.20772846144614  0.17107173467347  0.26565341294129
 6  13.54416687248725  0.41125599549955 -0.47973273647365
 6  14.48474677367737 -0.72100150275027 -0.25959010991099
 6  14.12099803940394  1.72724889648965 -0.07835709050905
 6  15.44498868926893  2.21675970417042 -0.87876287128713
 6  15.84324690909091  3.63936868966897 -0.53979459265927
 6  17.14445969506951  4.10440828242824 -1.23308724392439
 6  17.04905749544955  4.10461535323532 -2.77361958615862
 6  17.58806821292129  5.34700996629663 -0.71342080098010
 1 -2.53123884668467  1.14623889928993  3.57988845724573
 1 -6.17589556835684  5.66170155055506  0.62997198889889
 1 -8.78312872007201  1.28590889378938 -3.11757723652365
 1 -3.53485455025503 -3.27411272667267  2.10087814861486
 1 -1.90593771767177 -1.20556821842184  2.73857513361336
 1 -3.08471825092509 -2.85517867906791  4.26553009700970
 1 -3.37739853255326 -1.29840974537454  4.95568759855986
 1 -4.49701221292129 -1.92761184208421  3.98044199469947
 1 -2.29411472517252 -3.22109162646265 -0.14127475127513
 1 -1.42473030543054 -1.63475259155916  0.26423454505451
 1 -0.59010444394439 -3.21158245384538  2.36918113681368
 1 -1.37986270787079 -4.45907303850385  1.68830062806281
 1 -1.72284239803980  3.46456598099810  4.20976688638864
 1 -2.90510150025002  4.82681988798880  4.60467672537254
 1 -3.30995399039904  3.26915791329133  5.40891589758976
 1 -5.42697576147615  6.53431762616262  2.45691101250125
 1 -9.90839997349735  2.88532919001900 -3.09483273497350
 1 -10.23011380928093  4.64154799889989 -2.92367265796580
 1 -9.74475427522752  4.46576499049905 -5.32795799809981
 1 -8.17162667206721  5.14384412981298 -4.72804275927593
 1 -8.20363021202120  3.33512287108711 -5.16325625042504
 1 -8.54216180578058 -0.89173971687169 -4.50650164846485
 1 -8.58866984998500 -2.57475088018802 -3.88331096809681
 1 -9.72542262176218 -1.54550137353735 -3.11103801050105
 1 -4.03450080748075 -3.75776060266027 -1.37207049394940
 1  2.70871200420042 -6.10774871787179  0.93370932783278
 1  2.26001674507451 -5.23541051715172 -0.62238568816882
 1  3.85758788108811 -4.30605988778878  1.89387439503950
 1  2.70330531723172 -3.25908152925293 -1.77205974697470
 1  4.03546816011601 -1.99214277357736 -1.71544401490149
 1  4.26723889788979 -3.93731746094609 -2.12669159505951
 1  4.93777381828183 -1.27880430443044  0.64389627312731
 1  5.24912343964396 -2.45984761716172  1.65144002430243
 1  6.86675420212021 -3.78526171827183 -0.16641875787579
 1  6.42129228962896 -2.45860346934694 -1.09854044954495
 1  7.41985091639164 -0.80336366146615  0.73215046054605
 1  7.64142624552455 -2.28021460456046  1.49039342464246
 1  8.74784889418942 -1.89567784298430 -1.31836517461746
 1  8.78599311801180 -4.16978574997500 -0.39910370277028
 1  10.36745608640864 -3.46497069916992 -0.40171028452845
 1  9.62958201960196 -3.47235832733273  1.18745918861886
 1  9.50630978157816  0.05777150335033  0.28560392419242
 1  9.99138923642364 -1.05415194909491  1.41938147814782
 1  11.83908905020502 -1.89075910781078 -0.20759513271327
 1  11.11460754745475 -0.40841374627463 -1.42927426102610
 1  11.84800583408341  1.22561699089909  0.51849229402940
 1  12.43514833813381 -0.06118492709271  1.37565584578458
 1  13.47400420112011  0.35926035833583 -1.70803304200420
 1  14.46479581788179 -0.84550276297630  0.89914559455946
 1  14.00359593059306 -1.50121913821382 -0.42053837533753
 1  15.60140112851285 -0.55146834503450 -0.73319021152115
 1  13.41308950315032  2.47752237133713 -0.12850463816382
 1  14.45416211651165  1.77585787498750  1.13891110501050
 1  16.27239889568957  1.47499611231123 -0.58403489418942
 1  15.39648523192319  1.85054896769677 -1.93143452315232
 1  15.02087349194920  4.27773315131513 -0.90243224132413
 1  16.16949972007201  3.75929257065707  0.66442634303430
 1  17.97002068346835  3.49790128132813 -1.01253033263326
 1  16.26514723512351  4.93615014391439 -3.01644400420042
 1  18.00514643814381  4.34342385568557 -3.14458906400640
 1  16.86547674787479  3.04286535653565 -3.13806184078408
 1  17.51603765096510  5.58482970047005  0.35643730793079
 1  18.43501102340234  5.42070622282228 -1.43932084648465
 1  17.01499305020502  6.13851335443544 -1.38806286758676
 1 -4.83574887628763 -7.89136856995700  0.28122458475848
 1 -6.63029746004600 -7.00395748234824  0.33790729822982
 1 -5.07769593819382 -6.90481205680568  1.68313276987699
 8 -7.81170876247625  6.82701920272027 -0.47339512351235
 1 -9.11701999909991  6.37993363826383 -2.00821650445045

