%nproc=4
%Mem=4GB
# td=(NStates=1) iop(3/107=0140000000,3/108=0140000000) iop(3/107=0140000000,3/108=0140000000) CAM-B3LYP/6-31G(d,p) 

TD

0 1
12 -5.60439194579458  1.24202907720772  0.14661326652665
 6 -4.90327071427143 -2.08136659996000 -0.43271013781378
 6 -3.41715050415041  1.12539282408241  2.78085345864586
 6 -6.23514230993099  4.54911817601760  0.75257546634663
 6 -7.93737950505051  1.17119797049705 -2.40127780128013
 7 -4.31376562986299 -0.26014420622062  0.98464980378038
 6 -4.22984651215122 -1.61203490509051  0.66373872347235
 6 -3.35090821532153 -2.39541284408441  1.57661202490249
 6 -2.95077824882488 -1.39062195309531  2.70908746484649
 6 -3.60911833923392 -0.13694632233223  2.15055964116412
 6 -3.54785782518252 -1.87032047344735  4.05554825422542
 6 -2.01182637583758 -2.65854326362636  0.80312561806181
 6 -0.92070371387139 -3.36026360696070  1.47534112211221
 6  0.21367646814681 -3.85034887558756  0.68856705140514
 8  0.51579164346435 -3.46255356895690 -0.39576581078108
 8  0.94462130783078 -4.64340395769577  1.39355396269627
 7 -4.94095491179118  2.62354173107311  1.43127335903590
 6 -4.04543663346335  2.41822924462446  2.40693129642964
 6 -3.83429293299330  3.58727722992299  3.21208176437644
 6 -4.60460101280128  4.53780530883088  2.65700497179718
 6 -5.29216532073207  3.96061415661566  1.57281337363736
 6 -2.71434679777978  3.68415579137914  4.30638482788279
 6 -4.57891442204220  5.96024344484448  3.02580208500850
 8 -4.01312136013601  6.48457634563456  4.02010591049105
 7 -6.90929472937294  2.66260615641564 -0.72474413071307
 6 -6.98904161896190  4.02511212841284 -0.30753244194419
 6 -7.93876906330633  4.66409313411341 -1.21111522102210
 6 -8.40836028932893  3.61439836973697 -2.07623656805681
 6 -7.76897578807881  2.41444745354535 -1.67456340284028
 6 -8.27258024892489  6.03945385478548 -1.23108261706171
 6 -9.44197856115612  3.85579597779778 -3.23377801060106
 6 -8.58826027972797  4.13273141934193 -4.53532993699370
 7 -6.31913033203320 -0.11497651535153 -1.16122121412141
 6 -7.23588311791179  0.03129706110611 -2.14469868056806
 6 -7.42557006420642 -1.23737544114411 -2.83619614221422
 6 -6.51790133893389 -2.08539811161116 -2.19684585028503
 6 -5.80837925332533 -1.36597016211621 -1.21363749414942
 6 -8.40635609340934 -1.74537466346635 -3.85409230543054
 6 -6.10384405150515 -3.58700428432843 -2.09265282038204
 8 -6.52102649814981 -4.49752745114511 -2.69100536563656
 6 -4.90456901900190 -3.53641169376938 -0.93622594239424
 6 -5.12368984638464 -4.57770321142114  0.02765643744374
 8 -5.56338210981098 -4.45427443554355  1.11300766416642
 8 -4.91949164736474 -5.78492968936894 -0.52523566816682
 6 -5.07392495669567 -6.96850870417042  0.42080391019102
 6  2.19240021322132 -5.13936505670567  0.72332628702870
 6  3.29792432743274 -4.17956811771177  1.04624252405241
 6  3.95318470867087 -3.32921579167917  0.27626126112611
 6  3.73588792769277 -3.14604954625463 -1.14431393589359
 6  5.04760118591859 -2.38244329192919  0.79629342814281
 6  6.51372624392439 -2.77677060226023  0.24856632403240
 6  7.46841216481648 -1.77245660116012  0.58434412491249
 6  8.83394421572157 -1.92251708530853  0.03718593609361
 6  9.40722710441044 -3.41631227162716  0.12328887118712
 6  9.93454403350335 -0.96274651205121  0.60974348984898
 6  11.22751005340534 -0.87721732863286 -0.30641940814081
 6  12.12585027362736  0.27888251575158  0.12804965256526
 6  13.52138459425943  0.43035790569057 -0.64051881508151
 6  14.48539683868387 -0.73794319691969 -0.24274842574257
 6  14.13447938753875  1.87372354395440 -0.21205045984598
 6  15.48466265666567  2.07782581078108 -1.00929592459246
 6  16.02786537093709  3.56762151495150 -0.65936654985499
 6  17.26159140824083  3.86565440704070 -1.54295823102310
 6  16.99025161486149  3.87057194889489 -3.03762598679868
 6  17.74440384648465  5.24650991629163 -1.07342680158016
 1 -2.73404912771277  1.27613188858886  3.64326479487949
 1 -6.48298627742774  5.67486286668667  0.87559655135513
 1 -8.63033344054405  1.10382068496850 -3.19620509930993
 1 -3.87372843764376 -3.20579589498950  1.92354041484148
 1 -1.97192431633163 -1.36477413901390  2.92576385248525
 1 -3.05301508060806 -2.83648680988099  4.28846239023902
 1 -3.50080087278728 -1.00886079047905  4.72229425922592
 1 -4.64341685338534 -1.99377845874587  3.92763671417142
 1 -2.45497081078108 -3.29547906520652 -0.10209083288329
 1 -1.62664049644965 -1.62862197849785  0.47423554515452
 1 -0.36237167066707 -2.69195049064906  2.38380259895990
 1 -1.37939266086609 -4.31990912211221  2.14103590159016
 1 -1.64224433823382  3.42923244764477  4.02347825752575
 1 -2.76249723982398  4.80294750075007  4.69291554925493
 1 -2.89404239923992  3.20052104960496  5.36226123212321
 1 -5.02789585348535  6.78926312071207  2.39342466386639
 1 -10.04548368186819  2.93074373147315 -3.25652890459046
 1 -10.11994279217922  4.54553839793979 -2.88658894959496
 1 -9.23953375317532  4.48056647064706 -5.52650785308531
 1 -7.94636414581458  4.98703844924492 -4.11718167316732
 1 -7.90638048704870  3.24063342214221 -4.67905783058306
 1 -8.56538412801280 -0.96928747164716 -4.77764876317632
 1 -8.43972495549555 -2.68957236233623 -4.25684832183218
 1 -9.47276735623562 -1.51082790619062 -3.41706861356136
 1 -4.08902626002600 -3.90628545514552 -1.50283357025703
 1  2.48165929892989 -6.09668761176118  1.13835979287929
 1  2.11278202160216 -5.30662763886389 -0.33652710231023
 1  3.54607672997300 -4.21834111591159  2.15577058465847
 1  2.67931291799180 -3.24949057015702 -1.30115265626563
 1  4.14164877817782 -2.18837239653965 -1.54465693619362
 1  4.24621679567957 -3.83576730593059 -1.84809373527353
 1  4.76734677557756 -1.35591201520152  0.48768065156516
 1  5.19695822312231 -2.25520715311531  1.98364324462446
 1  6.67661518821882 -3.79173236533653  0.49972785678568
 1  6.38731889228923 -2.87002461146115 -0.97220781628163
 1  7.01417034833483 -0.78139146424642  0.48025527102710
 1  7.68483058595860 -1.73631021412141  1.73323770907091
 1  8.95524963426343 -1.74530280548055 -1.08084142224222
 1  8.68582310101010 -4.20182895429543 -0.44593838623862
 1  10.19996933773377 -3.54545874797480 -0.32339245274528
 1  9.61464052545255 -3.78774986648665  1.22417285998600
 1  9.52068121872187  0.13177890409041  0.58469383318332
 1  10.42768286578658 -1.14486102000200  1.57087662766277
 1  11.75120026132613 -1.84546457835784 -0.50121449464947
 1  10.78086417311731 -0.81043394829483 -1.38445977957796
 1  11.64138517201720  1.21397582678268 -0.12311186638664
 1  12.43896872017202  0.42730392179218  1.01889016921692
 1  13.32381918261826  0.60786521882188 -1.69945218391839
 1  14.86238557685768 -0.75517373007301  0.89798547854786
 1  13.94077964896490 -1.63738275457546 -0.43044936643664
 1  15.23398438683869 -0.56404960316032 -0.94569146164616
 1  13.30849904410441  2.56908152725272 -0.44653644134413
 1  14.26868356865687  1.71211150035003  0.87959517341734
 1  16.18371002680268  1.30916952965297 -0.75442193289329
 1  15.27248283168317  2.20030394319432 -2.05263664336434
 1  15.13564496909691  4.32161753975398 -0.96570856895690
 1  16.42329509960996  3.54504114551455  0.44254415481548
 1  18.05899958135814  3.35120661186119 -1.19290837043704
 1  16.14414513491349  4.61999852875288 -3.41038339813981
 1  17.94916083958396  4.11505101840184 -3.41696630173017
 1  16.59994019421942  2.78771984198420 -3.38726676127613
 1  17.87629367656766  5.34178539603960  0.09515117931793
 1  18.62455997829783  5.50790494269427 -1.77250416481648
 1  16.88915046594659  5.89308881198120 -1.21845590689069
 1 -4.85416071747175 -7.83344277737774 -0.14805834353435
 1 -6.16083051335134 -7.04414150075007  0.63184669216922
 1 -4.57991616021602 -6.81285286088609  1.29732418901890
 8 -7.80999859145915  6.83569006980698 -0.38283606760676
 1 -8.94296259335934  6.43608925382538 -2.17756343914392

