%nproc=4
%Mem=4GB
# td=(NStates=1) iop(3/107=0140000000,3/108=0140000000) iop(3/107=0140000000,3/108=0140000000) CAM-B3LYP/6-31G(d,p) 

TD

0 1
12 -5.64705621222122  1.24626950125013  0.11186979217922
 6 -4.99500988818882 -2.13945240854085 -0.33229009580958
 6 -3.36863565266527  1.23928421322132  2.84148952225223
 6 -6.13484227992799  4.55830909510951  0.69747995679568
 6 -7.97690345744574  1.16529738043804 -2.30906858035804
 7 -4.33294754805481 -0.22608079987999  1.06854819361936
 6 -4.25937946544655 -1.53202690429043  0.70984333393339
 6 -3.30271339583958 -2.32988629142914  1.55662002570257
 6 -2.98607177817782 -1.33732662356236  2.64500105620562
 6 -3.61779920732073  0.00616798909891  2.22477706290629
 6 -3.54304734413441 -1.70090353175318  3.96831953135314
 6 -2.14644983818382 -2.77777518681868  0.65322062756276
 6 -1.10773241674167 -3.72220980158016  1.34105769376938
 6  0.25030013051305 -3.92108594929493  0.62257045174517
 8  0.48223828812881 -3.40567788138814 -0.47337357155716
 8  1.00087693339334 -4.82480209750975  1.27388199549955
 7 -4.89201001730173  2.63619299619962  1.41666189788979
 6 -3.96758884868487  2.40358778047805  2.44518512181218
 6 -3.68991849554955  3.59939844204420  3.18097865406541
 6 -4.47054760746075  4.60607213551355  2.59680895219522
 6 -5.24773087728773  3.97074516971697  1.45113120542054
 6 -2.70243560666067  3.74878225402540  4.35256944634463
 6 -4.48566509710971  5.98752617311731  2.90103960876088
 8 -3.80232028002800  6.55670355835584  3.65132903280328
 7 -6.80957475737574  2.64813470927093 -0.75673733003300
 6 -6.90221293609361  3.98029764696470 -0.39785147384738
 6 -7.84058924532453  4.57194391919192 -1.13922803230323
 6 -8.33737319061906  3.65884281418142 -2.03579252365237
 6 -7.70069896039604  2.49849585838584 -1.75002094859486
 6 -8.24921791269127  5.99969987938794 -1.12883239203920
 6 -9.52849721302130  3.87211760996100 -3.04124875767577
 6 -8.94282573627363  4.19830797699770 -4.50361676567657
 7 -6.30904932393239 -0.12922794049405 -1.20674576657666
 6 -7.33484301390139 -0.01881795039504 -2.11618582928293
 6 -7.59237674487449 -1.34082578617862 -2.70679320192019
 6 -6.59658920772077 -2.21064063586359 -2.09468563426343
 6 -5.99022743814381 -1.42224578967897 -1.10390652105210
 6 -8.42467792559256 -1.70059018501850 -3.82861975817582
 6 -6.21397506460646 -3.55158074197420 -2.04203775887589
 8 -6.56473086858686 -4.56365406380638 -2.56893315841584
 6 -5.04302286438644 -3.52018007060706 -0.88540085988599
 6 -5.38759623702370 -4.61379682078208  0.10830450225022
 8 -5.77164293589359 -4.53151215931593  1.28401476487649
 8 -4.92880257845785 -5.82032322872287 -0.42079522412241
 6 -5.21443900810081 -6.97207906120612  0.54246607640764
 6  2.33262423562356 -5.10047116731673  0.59686364076408
 6  3.31873640864086 -3.99548970987099  1.05913381318132
 6  3.97549693989399 -3.25101797189719  0.15225886088609
 6  3.73663800270027 -3.11837677897790 -1.24522402690269
 6  5.21263768956896 -2.44057910551055  0.67800159895990
 6  6.53592846414641 -2.81999492469247  0.05500696809681
 6  7.69916524012401 -1.96895625112511  0.51031672217222
 6  9.05909673097310 -2.08510334393439 -0.10487827032703
 6  9.58516489818982 -3.58051869226923  0.08910545284528
 6  9.93870444954495 -1.01606184358436  0.34379689518952
 6  11.47137443984398 -1.01346095299530 -0.17962672887289
 6  12.09573726232623  0.30726535403540  0.21235808340834
 6  13.51308376417642  0.45339020892089 -0.53877864106411
 6  14.39512781178118 -0.78356775937594 -0.23959811071107
 6  14.22784872447245  1.83780995259526 -0.15859511431143
 6  15.48792298269827  2.17190521872187 -0.90258525352535
 6  15.97825040944094  3.59447420022002 -0.63688430163016
 6  17.25449069816982  4.07654549614962 -1.37514144934493
 6  17.05857844754475  4.16316120782078 -2.87122934713471
 6  17.68927833393339  5.39308457375738 -0.82569202810281
 1 -2.77593331613161  1.30553482888289  3.81568203660366
 1 -6.42837081588159  5.65165054545455  0.83462245394540
 1 -8.73953436063606  1.19745004790479 -3.02224770357036
 1 -3.68053911871187 -3.18850416581658  2.01193925472547
 1 -1.77261438533853 -1.01837949954996  2.78337961406141
 1 -2.91367114621462 -2.65487864906491  4.30525406940694
 1 -3.58035882858286 -0.81626153055306  4.63484551435143
 1 -4.62381489318932 -2.17971705260526  3.87344129462946
 1 -2.48756407010701 -3.25721523882388 -0.19540016381638
 1 -1.36400423282328 -2.05269438573857  0.17686580818082
 1 -0.71217665116512 -3.26231752735273  2.27010122882288
 1 -1.53460818241824 -4.87459459065906  1.39167096509651
 1 -1.58027814161416  3.66547607200720  3.92633854355435
 1 -2.96079706980698  4.81162836883688  4.66966322402240
 1 -2.77908090309031  2.87679867736774  5.08106311231123
 1 -5.01961502540254  6.75643983838384  2.09655497689769
 1 -10.01782091559156  2.83636429352935 -3.07335058675868
 1 -10.32102290019002  4.64672851695169 -2.82037232793279
 1 -9.76401620142014  3.91976039003900 -5.26758196049605
 1 -8.16974648404840  5.07935768116812 -4.35356531153115
 1 -8.11339118811881  3.53365272407241 -4.75493541834184
 1 -8.26762435203520 -1.16859740264026 -4.53955495379538
 1 -8.45372635563556 -2.85104850995100 -4.30731336833683
 1 -9.51135121462146 -1.23187001040104 -3.59514642134213
 1 -4.14879223662366 -3.96130095669567 -1.43593688058806
 1  2.54341547454746 -6.04325226822682  0.78424438133813
 1  2.29148989238924 -5.26840381648165 -0.39473292289229
 1  3.45253737603760 -3.97207648944895  2.18915392299230
 1  2.59559454615462 -3.31263688478848 -1.37987052805280
 1  3.88478309160916 -2.06733029232923 -1.26271874237424
 1  4.54895706970697 -3.46697042624262 -1.99476840274027
 1  5.04900494139414 -1.34406083008301  0.27209909340934
 1  5.27835636293629 -2.58093972637264  1.82437731803180
 1  6.42234976167617 -3.80012320442044  0.08080596459646
 1  6.59885004540454 -2.55614322332233 -0.99907050255025
 1  7.23823275457546 -0.90959428452845  0.31845909140914
 1  7.86878898179818 -2.14625120822082  1.66602098739874
 1  9.06634074337434 -1.89697797299730 -1.12609594769477
 1  8.86892141084108 -4.32625139653965 -0.26255004740474
 1  10.52070141094110 -3.57009121122112 -0.44571468496850
 1  9.73076213761376 -3.53578466996700  1.03523396609661
 1  9.39906905750575 -0.03104737853785  0.12481784558456
 1  9.88620871837184 -0.95266180008001  1.35742528252825
 1  11.90567570887089 -1.77061709360936  0.07752337913791
 1  11.23071915861586 -1.25479838473847 -1.26754808840884
 1  11.57352838633864  1.21599602880288 -0.35387494269427
 1  11.90073489678968  0.27081827322732  1.37933621382138
 1  13.38310511121112  0.47530196249625 -1.64087632633263
 1  14.81347068536854 -0.92994120682068  0.89949562956296
 1  13.88985455645565 -1.71900091639164 -0.46066238773877
 1  15.26555754415442 -0.94106730493049 -0.86555344784478
 1  13.31445964016402  2.68521314041404 -0.48158994669467
 1  14.50842754305431  1.99203949314931  1.11209842374237
 1  16.23415507130713  1.55136374907491 -0.60039653035304
 1  15.45318090149015  2.16368028082808 -2.09924130383038
 1  15.18316972157216  4.30945632363236 -0.57242924102410
 1  16.34165693579358  3.48660530193019  0.44731463186319
 1  18.09373305470547  3.23599509070907 -1.15928500810081
 1  16.12374309470947  4.64959148804880 -3.15872823262326
 1  17.95017094059406  4.57324683798380 -3.40022462756276
 1  17.10312051225123  3.21777284728473 -3.31082911751175
 1  17.91606765396540  5.32756397389739  0.28681034523452
 1  18.69059658195820  5.81211536373637 -1.38351526592659
 1  16.87816936783678  6.33212271537154 -1.08874293559356
 1 -5.16044134553455 -7.76976640974097 -0.03779731743174
 1 -6.19804423472347 -7.00070715731573  0.89010251775178
 1 -4.46158432703270 -6.91757333293329  1.32225668226823
 8 -7.90360795239524  6.98534503530353 -0.45775355935594
 1 -9.04486278337834  6.17232287718772 -1.82200788358836

