%nproc=4
%Mem=4GB
# td=(NStates=1) iop(3/107=0140000000,3/108=0140000000) iop(3/107=0140000000,3/108=0140000000) CAM-B3LYP/6-31G(d,p) 

TD

0 1
12 -5.48634014061406  1.28110298459846  0.13559216441644
 6 -5.00899128632863 -2.03061152445245 -0.38089495629563
 6 -3.45156394549455  1.15981626642664  2.76355172847285
 6 -6.14868366406641  4.56790005420542  0.66751696049605
 6 -8.06623239033903  1.17439829052905 -2.23628130163016
 7 -4.37551180448045 -0.27387557935794  0.97948928772877
 6 -4.29155268276828 -1.59146284788479  0.64176652625263
 6 -3.16697982248225 -2.39830313311331  1.39505386908691
 6 -3.02868603960396 -1.37070996189619  2.64712126822682
 6 -3.64793222062206 -0.06051867956796  2.12985757095710
 6 -3.52940597999800 -1.81839528092809  4.01669436883688
 6 -1.97827302050205 -2.69636704600460  0.60154546004600
 6 -0.90693233673367 -3.59828740934093  1.40724431243124
 6  0.32547764826483 -3.88260210091009  0.62681087578758
 8  0.47974803910391 -3.44441175477548 -0.54427066126613
 8  1.20195704140414 -4.58586820412041  1.31277588488849
 7 -4.87923874017402  2.61833121002100  1.51773200490049
 6 -4.04373646344634  2.49584700640064  2.54460506380638
 6 -3.71196069976998  3.78474697689769  3.13840439663966
 6 -4.48590914361436  4.65113664196420  2.51289056035604
 6 -5.17660376457646  3.90481857705771  1.44591068336834
 6 -2.81158652175218  3.75304268006801  4.25777996739674
 6 -4.64368089868987  6.02417983848385  2.80527003180318
 8 -3.95662571057106  6.59483737173717  3.68229212911291
 7 -6.94749854975498  2.66257615341534 -0.60580223652365
 6 -6.96400911571157  3.98334795199520 -0.34098578727873
 6 -7.97851303770377  4.63355007980798 -1.19033314281428
 6 -8.49451890519052  3.63854078397840 -2.02709165356536
 6 -7.83678256875688  2.36950295909591 -1.67461340784078
 6 -8.42405539643964  5.99976988638864 -1.11882139093909
 6 -9.58030239353936  3.79372977117712 -3.05692032483248
 6 -9.01294274797480  4.11736988318832 -4.40378678267827
 7 -6.40466888588859 -0.18758377607761 -0.97815290729073
 6 -7.34017354695470 -0.07053312191219 -2.12137634833483
 6 -7.61409891709171 -1.34446615021502 -2.67397992059206
 6 -6.67683723252325 -2.18938851065107 -2.12555872157216
 6 -6.00446886228623 -1.38403196829683 -1.15513164356436
 6 -8.59448490629063 -1.64731485748575 -3.73438033423342
 6 -6.18837250435044 -3.58719430333033 -2.09840339543954
 8 -6.57582197769777 -4.61805950435043 -2.63317958305831
 6 -5.04768333043304 -3.54024207680768 -1.01568388818882
 6 -5.39192667006701 -4.53455889698970  0.03111678347835
 8 -5.82280805240524 -4.36260526862686  1.15478184158416
 8 -5.07480717891789 -5.77879907630763 -0.43997714231423
 6 -5.36327389158916 -6.89108096139614  0.43926575637564
 6  2.49119009220922 -5.05738685888589  0.63095705010501
 6  3.57226176117612 -4.21432159305931  1.00083798359836
 6  4.18482787298730 -3.36910978107811  0.15323895889589
 6  3.68522286118612 -3.04884982628263 -1.30206971147115
 6  5.16676310211021 -2.46351139873987  0.70211401020102
 6  6.58920379167917 -2.59618254345435  0.07154862226223
 6  7.65514083768377 -1.81460081558156  0.67527321782178
 6  9.09292011331133 -2.06411124472447 -0.00716849934994
 6  9.56752313401340 -3.45826646704670  0.08460500280028
 6  10.03197377647765 -1.01015125252525  0.52452496799680
 6  11.45240254265427 -0.94730433733373 -0.14543330953095
 6  12.30205789438944  0.23203783128313  0.22280912851285
 6  13.58248070387039  0.37634250415041 -0.47495225842584
 6  14.57193549254925 -0.74479388198820 -0.17066121702170
 6  14.20219615921592  1.75923209480948 -0.14594384918492
 6  15.53527771817182  2.02961098929893 -0.99209420442044
 6  15.96718930333033  3.59632438523852 -0.71197181038104
 6  17.32731798089809  3.99755759735974 -1.35687962316232
 6  17.15919850955095  3.96313120482048 -2.95525774997500
 6  17.83499290539054  5.31249651495150 -0.88380783968397
 1 -2.77212293509351  1.08116239163916  3.51263173157316
 1 -6.34145212401240  5.54159954035404  0.92189118081808
 1 -8.79083949114911  1.25859616251625 -3.02351783058306
 1 -3.63178424322432 -3.36219153455346  1.77451551235124
 1 -2.03072019591959 -1.28803646524652  2.91408268436844
 1 -3.02343212231223 -2.71598475967597  4.24578812281228
 1 -3.14910570327033 -1.04689459385939  4.68883091289129
 1 -4.62742525422542 -2.06785586648665  3.89726367686769
 1 -2.36616192989299 -3.35450496779678 -0.11661228502850
 1 -1.55127295969597 -1.74506362266227  0.25570369196920
 1 -0.59341477497750 -3.17823911951195  2.37452167086709
 1 -1.37300202180218 -4.45585271647165  1.62712451045105
 1 -1.80127024082408  3.43317284168417  4.05797170687069
 1 -2.71833282338234  4.65752295829583  4.78628488618862
 1 -2.95875887088709  2.98024902240224  4.89643464946495
 1 -5.40505356925692  6.71965616001600  2.49113443484348
 1 -9.94706383988399  2.69146980408041 -3.33511676337634
 1 -10.36043684158416  4.50281412551255 -2.76873716441644
 1 -9.77098689848985  4.36078449244924 -5.24920012231223
 1 -8.46335584498450  4.93912365776578 -4.38443839883988
 1 -8.14456430543054  3.57077643644364 -4.81020094489449
 1 -8.14362195179518 -1.05331587448745 -4.57582858115811
 1 -8.69004998799880 -2.70288369346935 -4.06605924292429
 1 -9.49989006850685 -1.26255307870787 -3.50831773847385
 1 -4.14034139153915 -3.82318714531453 -1.64125741264126
 1  2.65861699469947 -6.02958090109011  0.99360531743174
 1  2.26360710411041 -5.07917489358936 -0.38896234583458
 1  3.76371849414942 -4.00985026682668  2.10708571617162
 1  2.75062004870487 -3.65315093619362 -1.53384592559256
 1  3.68108272157216 -1.68197175647565 -1.42697516801680
 1  4.37678985298530 -3.41190491969197 -2.13647257315732
 1  5.04732477337734 -1.37172359635964  0.57657954145414
 1  5.16478500580058 -2.55757739013901  1.80165504580458
 1  6.74717224392439 -3.71673486558656  0.08596648064806
 1  6.58878903930393 -2.38269587858786 -0.98573916941694
 1  7.37167609890989 -0.75120844594459  0.72637988348835
 1  7.74966706960696 -2.09503608670867  1.74589897519752
 1  8.98487259655966 -1.79427770297030 -1.08254159225923
 1  8.95715023372337 -4.29400817221722 -0.38403219561956
 1  10.60360970177018 -3.64207840994099 -0.20961107460746
 1  9.52226128752875 -3.85598669016902  1.00650109280928
 1  9.74237338793879  0.07310303650365  0.56788215201520
 1  10.15221531903190 -1.30725725962596  1.66082562256226
 1  11.91943708500850 -1.84419445134513 -0.23722809600960
 1  11.27321340804080 -0.87630053495350 -1.35319665326533
 1  11.76966800030003  1.26911134033403  0.34165461026103
 1  12.64909973327333  0.09674086548655  1.22391067126713
 1  13.48626542724272  0.28996342864286 -1.73622586128613
 1  14.78059739803980 -0.77864607730773  0.81595727572757
 1  14.03998956995700 -1.64545356165617 -0.58418473997400
 1  15.43069405780578 -0.54655785398540 -0.70731762426243
 1  13.44330252445245  2.74587920702070 -0.26878866656666
 1  14.54162086238624  1.96628691789179  0.83357057095710
 1  16.26584824062406  1.25861447414741 -0.49058554925493
 1  15.30056563996400  2.05572948574857 -2.06513789348935
 1  15.17516892149215  4.26187156515652 -1.00090208830883
 1  15.87335010511051  3.52819946134613  0.55904580498050
 1  18.23227690909091  3.20418190939094 -1.23006208580858
 1  16.25677639803980  4.39779630853085 -3.33063542334233
 1  18.14148007150715  4.17367688098810 -3.32394699979998
 1  16.96793699389939  2.98496956695670 -3.33165119971997
 1  17.87010305750575  5.39506072357236  0.36955862006201
 1  18.93046056835684  5.54673882608261 -1.34711162556256
 1  17.20849240014001  6.18502800590059 -1.34592865416542
 1 -5.35520082148215 -7.84772420552055 -0.08119165686569
 1 -6.41763619391939 -7.07071415801580  0.82734624212421
 1 -4.62608077667767 -6.74749632523252  1.25346980358036
 8 -7.95813340494049  6.84835133593359 -0.43783156715672
 1 -9.24495279237924  6.30053569846985 -1.71048673147315

