%nproc=4
%Mem=4GB
# td=(NStates=1) iop(3/107=0140000000,3/108=0140000000) iop(3/107=0140000000,3/108=0140000000) CAM-B3LYP/6-31G(d,p) 

TD

0 1
12 -5.64194570117012  1.18728360266027  0.17720632583258
 6 -5.02671305850585 -2.18807727102710 -0.25412227902790
 6 -3.38035682478248  1.16098638343834  2.66186155945595
 6 -6.27540633633363  4.55289855405541  0.71795200400040
 6 -8.07329309640964  1.12373322402240 -2.35093276677668
 7 -4.47516176947695 -0.27880607240724  1.13462480128013
 6 -4.24519804730473 -1.55822952455246  0.64083643324332
 6 -3.12044516901690 -2.27863116591659  1.37211157485749
 6 -2.81363453445345 -1.20460335123512  2.57185374147415
 6 -3.53069049644965 -0.06366899459946  2.02532711791179
 6 -3.47845088448845 -1.77233067446745  3.89120181958196
 6 -1.97378257145715 -2.67178458775878  0.55489079457946
 6 -0.94464610811081 -3.53657123772377  1.31589517751775
 6  0.29585468596860 -3.90311415211521  0.51919011371137
 8  0.46363642794279 -3.49496681028103 -0.64443067726773
 8  1.10201704740474 -4.78904852215221  1.12881748904891
 7 -4.90464128042804  2.68879825672567  1.33329356105611
 6 -4.00101219101910  2.34313173487349  2.28548915221522
 6 -3.72931243494349  3.58684718691869  3.16564712091209
 6 -4.53459401210121  4.58315984428443  2.58959823112311
 6 -5.30773687788779  4.03423151835184  1.51871796409641
 6 -2.65601096419642  3.63908128392839  4.11037522692269
 6 -4.53130966156616  5.97249466996700  2.95163466826683
 8 -3.94291433943394  6.54425231323132  3.91545544544454
 7 -6.92168596849685  2.62044193999400 -0.69807146344634
 6 -6.96053876867687  3.94921453865387 -0.44237592629263
 6 -7.87542272867287  4.57623434823482 -1.22815692519252
 6 -8.44054350765076  3.63925085498550 -2.07866681108111
 6 -7.71129001950195  2.47876388518852 -1.81003695019502
 6 -8.29634262516252  5.91003091249125 -1.04627413621362
 6 -9.43588795209521  3.77004740294029 -3.15233986678668
 6 -8.68664011771177  4.10686883308331 -4.60277668166817
 7 -6.41773019201920 -0.19983500120012 -1.12237732973297
 6 -7.52998252785278 -0.09108517711771 -2.08937314801480
 6 -7.75194270147015 -1.37133883748375 -2.61144366696670
 6 -6.83298284708471 -2.17220679247925 -1.95010117581758
 6 -6.04750316571657 -1.45494906000600 -1.02333846424642
 6 -8.65523098089809 -1.65245537153715 -3.76998389458946
 6 -6.40189385648565 -3.56786237013701 -1.89075263036304
 8 -6.77678207370737 -4.51790948934894 -2.45102136723672
 6 -5.13333189528953 -3.53018107070707 -0.87059937973797
 6 -5.43851132853285 -4.64001944304430  0.14570824262426
 8 -5.94347011861186 -4.42097110521052  1.24944130753075
 8 -5.07422712091209 -5.85489668606861 -0.32998614321432
 6 -5.61548911311131 -6.97374922822282  0.48967079687969
 6  2.42544351755176 -5.02992411261126  0.60342429682968
 6  3.39375391039104 -4.02990315121512  1.05375327512751
 6  4.03625301550155 -3.19185205530553  0.22694632963296
 6  3.84641898079808 -3.03210815211521 -1.35839534403440
 6  5.20710713651365 -2.26393144074407  0.69016281508151
 6  6.55263013431343 -2.71945487068707  0.07682915031503
 6  7.66230155375538 -1.81569092459246  0.57951364186419
 6  9.05783660496050 -2.02320715431543 -0.06166394889489
 6  9.51261764346435 -3.48458909930993  0.20162670497050
 6  10.01002158125813 -0.87862810021002  0.45543805930593
 6  11.38321562396240 -0.90581018791879 -0.18239700590059
 6  12.25627331593159  0.32998762626263  0.31041788938894
 6  13.56049850565056  0.55262013191319 -0.48466322952295
 6  14.52590088908891 -0.57347675027503 -0.19430358125813
 6  14.20600654025402  1.87578374997500 -0.28016727152715
 6  15.55106929732973  2.03965199339934 -0.99393438843884
 6  16.27731031543154  3.45186993979398 -0.63179379257926
 6  17.54704995409541  3.92069991159116 -1.38271220642064
 6  17.41652424212421  4.13165805750575 -2.88782100630063
 6  18.00072947904790  5.23691895719572 -0.77037649654966
 1 -2.82020774357436  1.01989626502650  3.61239170757076
 1 -6.54250222902290  5.44129951035104  0.74386337803780
 1 -8.87623803100310  1.24448475137514 -3.13111859065907
 1 -3.45688675347535 -3.20524583998400  1.87292535333533
 1 -1.88951607550755 -0.96821448304830  2.63374465056506
 1 -3.24406418551855 -3.00688384958496  3.89768331233123
 1 -3.04992578527853 -1.10687059145915  4.77209923972397
 1 -4.72325483718372 -1.78812789368937  4.04596854735474
 1 -2.22608792249225 -3.33667318461846 -0.27298792259226
 1 -1.42990082248225 -1.71895101140114  0.14265238683868
 1 -0.65812124562456 -3.15197649324932  2.55997021572157
 1 -1.51740646224622 -4.55483261446145  1.52597439543954
 1 -1.62199231303130  3.69032855725573  3.64965087478748
 1 -2.99428041814181  4.67631483748375  4.57590384808481
 1 -2.58781177617762  3.02146314381438  5.01389639563956
 1 -5.44530759465947  6.58354254865487  2.47465278667867
 1 -10.18314744824482  3.00168082518252 -3.38656190789079
 1 -10.03787458535854  4.55971981608161 -2.86142643334333
 1 -9.38691849164917  4.02994140814081 -5.42498770107011
 1 -8.15585509490949  5.08428817421742 -4.69798975397540
 1 -8.06942679167917  3.11807116591659 -4.79040896569657
 1 -8.56279386898690 -0.88980952385238 -4.59521051935193
 1 -8.15273625662566 -2.59678308340834 -3.94680731773177
 1 -9.62428250775078 -1.65477230063006 -3.29360626732673
 1 -4.14973233063306 -3.79480430703070 -1.31815510241024
 1  2.78179931293129 -6.00683862686269  1.06546250315031
 1  2.41579232263226 -5.51191816791679 -0.30486393599360
 1  3.75974809710971 -3.85825510731073  2.13895890349035
 1  2.80634562126213 -3.18058367946795 -1.74822736373637
 1  4.05418003130313 -1.89884344364436 -1.35846831733173
 1  4.31610378437844 -3.93107683688369 -1.92937186308631
 1  4.87512755365537 -1.44866129012901  0.51964384788479
 1  5.31788031533153 -2.48554018641864  1.73815869616962
 1  6.89061658835884 -3.69841303340334  0.30096798079808
 1  6.49597975837584 -2.68975658465847 -0.93102369786979
 1  7.49167809910991 -0.67544086918692  0.44010125562556
 1  7.74580668356836 -1.92763934703470  1.58907329262926
 1  8.88546265556556 -1.87684595979598 -1.15464880298030
 1  8.81813633233323 -4.24588335973597 -0.20173396579658
 1  10.61577091789179 -3.67661186328633  0.00482036853685
 1  9.57301636303630 -3.73052414391439  1.25815625832583
 1  9.48169732033204 -0.15076935073507  0.18127349114912
 1  10.02515261276128 -1.00153668756876  1.51145068506851
 1  11.95216035733573 -1.80005003690369  0.00203583038304
 1  11.16092217891789 -0.59232213711371 -1.35049638323832
 1  11.56797783128313  1.12156658585859  0.12742318711871
 1  12.50587541084108  0.40355154655466  1.36542482268227
 1  13.38386518721872  0.63042747504750 -1.63337557625763
 1  14.91534087238724 -0.47717593029303  0.82758843884388
 1  14.30846641764176 -1.76727574387439 -0.21167748924892
 1  15.34259524792479 -0.44257745594559 -0.83758065056506
 1  13.56698489268927  2.73644826392639 -0.48581036873687
 1  14.26183288358836  1.97363765296530  0.71098831273127
 1  16.38373002880288  1.22779139183918 -0.85534202490249
 1  15.34084966836684  2.29481339413941 -2.11813319301930
 1  15.58656006060606  4.13219859785979 -0.92414441254125
 1  16.46243901400140  3.76240288168817  0.32598249864987
 1  18.30586426782678  3.29212070327033 -1.11291037063706
 1  16.79709042944294  4.84755128402840 -3.36424878467847
 1  18.42594851835184  4.54650416371637 -3.18014261936194
 1  17.25996619681968  3.20070114011401 -3.49470750535053
 1  17.98822486968697  5.13691490899090  0.23439510371037
 1  19.07592511481148  5.46062021422142 -1.13100001440144
 1  17.47884943584358  6.04717422052205 -0.90697475877588
 1 -5.35497079847985 -7.80877031013101 -0.02624616231623
 1 -6.74115854615462 -7.01196828342834  0.51457496499650
 1 -5.14834300290029 -6.89913148874887  1.44253871047105
 8 -7.84696228782878  6.80800730153015 -0.27903568756876
 1 -8.99354765186519  6.48276392129213 -1.89903558635864

