%nproc=4
%Mem=2GB
# td=(NStates=1) iop(3/107=0140000000,3/108=0140000000) iop(3/107=0140000000,3/108=0140000000) CAM-B3LYP/6-31G(d,p) 

TD

0 1
12 -6.75667823992399  0.67132627672767  0.06832445194519
 6 -4.45386249274927 -1.99690811261126  0.25308558555856
 6 -4.12083389878988  2.67698933203320  0.86168905050505
 6 -8.95035774047405  3.06350037413741 -0.33012251395140
 6 -9.24834293189319 -1.79428245784578 -0.84748480718072
 7 -4.69215428732873  0.36480587828783  0.62516154825483
 6 -3.84177144274427 -0.77580728752875  0.52708326372637
 6 -2.51999541814181 -0.48643040224022  1.00467252955296
 6 -2.43237320312031  0.99741989078908  1.21437359985999
 6 -3.86122238513851  1.36430651585159  0.92283705840584
 6 -2.13312959865987  1.47545934183418  2.70633519631963
 6 -1.63073182158216 -0.87201976537654 -0.04802347604760
 6 -0.05578369666967 -0.80496220282028  0.38504757825783
 6  0.78905998519852 -1.11751898879888 -0.81971014481448
 8  0.59632970107011 -0.97168978147815 -2.03154414461446
 8  1.75047533413341 -1.93841414001400 -0.24929985248525
 7 -6.50861260346035  2.67959832983298  0.17414116201620
 6 -5.50246080698070  3.19877852105210  0.69660595679568
 6 -5.75777999319932  4.68843852865286  0.77395226382638
 6 -7.16354706810681  4.80861695219522  0.46792337563756
 6 -7.61502320622062  3.48493730213021  0.03087791919192
 6 -4.95812073237324  5.67469489999000  1.24048171617162
 6 -8.03684524582458  6.00148706880688  0.53235275897590
 8 -7.37644156035604  7.07654927152715  0.47321517831783
 7 -8.84929848334833  0.58683954315432 -0.35839848894890
 6 -9.60232390479048  1.72362709800980 -0.46237729002900
 6 -10.96983361366137  1.50815068616862 -0.84060984218422
 6 -10.97994235173517  0.08522942734273 -0.91373222872287
 6 -9.64497616091609 -0.42415057825783 -0.64517659435944
 6 -12.12529930523052  2.42334852795280 -0.88885353615362
 6 -12.16549967046705 -0.56522008430843 -1.39620775447545
 6 -12.28385524762476 -0.91983414861486 -3.13548634333433
 7 -6.91952843574358 -1.46883944524452 -0.25208785328533
 6 -7.98364102570257 -2.25958595529553 -0.66858005600560
 6 -7.51041862696270 -3.58623594599460 -0.61304231433143
 6 -6.28335395659566 -3.56701586248625 -0.14984324492449
 6 -5.79574586328633 -2.18210702520252 -0.04281809750975
 6 -8.31829035253525 -4.79196657445745 -1.15008782468247
 6 -5.02787899239924 -4.50518631673167  0.17732575827583
 8 -4.86001775047505 -5.65855639393939  0.13690419701970
 6 -3.88264198959896 -3.41774233343334  0.50911555875588
 6 -3.18752226312631 -3.51581775727573  2.01221093409341
 8 -3.83641888198820 -3.83111984678468  3.03335200500050
 8 -1.85927760266027 -3.37601390669067  1.99197913711371
 6 -1.06637515961596 -3.68064315441544  3.24510893609361
 6  2.89326121892189 -2.16940211711171 -1.18188943304330
 6  3.96339010641064 -1.37634463556356 -0.85042057435744
 6  5.08310906630663 -0.96665353675368 -1.56228242984298
 6  5.32003598739874 -1.73745688038804 -3.00252723492349
 6  6.10357418201820  0.03393574067407 -1.26550310881088
 6  7.40399909390939 -0.68124390649065 -0.83543028032803
 6  8.52211477177718  0.30531616621662 -0.60306878737874
 6  9.74404749414941 -0.31387830813081  0.11857355165517
 6  9.49233674997500 -0.90349916461646  1.51665603440344
 6  10.86850918091809  0.72307716191619  0.20445528392839
 6  12.26454172467247  0.12496380358036  0.40600891209121
 6  13.44557610021002  1.07061433613361  0.22441533993399
 6  14.80060639583959  0.41979525762576  0.40164482658266
 6  14.90464545264526 -0.06485876637664  1.86378630263026
 6  15.93900352875288  1.33651855385539  0.10934413971397
 6  17.32720219831983  0.62403762816282 -0.06589346324632
 6  18.30545009240924  1.62502969416942 -0.59275942274227
 6  19.76691889298930  1.04671316611661 -0.51450153385339
 6  19.89970977227723 -0.10737530723072 -1.50468625982598
 6  20.95434260316032  1.88827024502450 -0.54853994989499
 1 -3.28031867016702  3.12301355235524  1.02555195689569
 1 -9.81796577907791  3.87702678777878 -0.45430906480648
 1 -9.96807929952995 -2.49397979727973 -1.04949777567757
 1 -2.53395591239124 -0.88135575337534  1.96325637393739
 1 -1.80191953055305  1.56922739893989  0.26633308670867
 1 -1.10937232093209  1.21320963536354  3.22317302840284
 1 -1.79963813771377  2.61458003440344  2.72995911371137
 1 -2.91911424392439  1.22605049034903  3.37800366946695
 1 -2.03605262556256 -1.95028630163016 -0.50863865066507
 1 -1.88898406740674 -0.05857733063306 -0.76682647344735
 1  0.17877587588759  0.36259482618262  0.62024788998900
 1  0.03650993119312 -1.58982531633163  1.25713594569457
 1 -3.68869339973997  6.03601142904290  0.42038699639964
 1 -5.67377765836584  6.42342501840184  1.13214012011201
 1 -4.71683271147115  5.42002096309631  2.44140191249125
 1 -9.25535854995500  5.63442855205520  0.34917854205420
 1 -12.31528108170817 -1.65481634913491 -0.78258268546855
 1 -13.16291250625062 -0.10484408460846 -0.94765240164016
 1 -13.39094691779178 -1.17575969136914 -3.31529864696470
 1 -11.88076504030403 -0.11773435193519 -3.58810097959796
 1 -11.93845066946695 -1.98304162116212 -3.42723933133313
 1 -8.79646883018302 -4.41809836543654 -2.22475470347035
 1 -7.86183139773977 -5.61012102470247 -1.00784043594359
 1 -9.14448172817282 -4.95504746594660 -0.58891428192819
 1 -3.12307188858886 -3.32837656255626 -0.26072437923792
 1  3.16467808320832 -3.23610088388839 -0.90757647474747
 1  2.52849713851385 -2.34643055805581 -2.35030526582658
 1  3.83630095779578 -0.96393914231423  0.29145274687469
 1  4.81457451445145 -1.10507397989799 -3.79804991999200
 1  6.59734331273127 -1.71815049044904 -3.18053927782778
 1  4.72089591699170 -2.83790640494049 -3.01701588538854
 1  6.47935835773577  0.58093343074307 -2.62230484768477
 1  5.74455956535654  0.99046459425943 -0.41393565696570
 1  7.08126930583058 -1.36901509860986  0.28453017461746
 1  7.62055745414541 -1.77844663496350 -1.46691616751675
 1  8.67140927232723  0.99587018181818 -1.50606339163916
 1  7.73385188328833  1.23417860606061  0.12627833623362
 1  10.34840728782878 -1.17123456715671 -0.33818097569757
 1  8.74761700600060 -1.49235805150515  1.47497585838584
 1  10.04359042844284 -1.38584246544654  1.88324021542154
 1  9.28309152075208 -0.02824404680468  2.15258656375638
 1  10.84871850965097  1.24405716561656 -0.50917808940894
 1  10.46132587918792  1.29437831343134  0.88706258655866
 1  12.28072561476148 -0.07541998149815  1.25497918121812
 1  12.22238439243924 -0.70656887748775 -0.25499849734973
 1  13.14023889388939  1.64417396239624 -0.70564946954695
 1  13.39877192199220  1.84679893119312  1.16174196359636
 1  14.70431185698570 -0.43196071207121 -0.38653684488449
 1  15.21410131003100  0.75723611911191  2.69998277127713
 1  14.01384865836584 -0.96639431133113  1.97938543664366
 1  15.81059809290929 -0.75316889999000  1.44993147084709
 1  15.60498163306331  1.41191118451845 -1.06327630233023
 1  15.89850388298830  2.24955449094909  0.66804512771277
 1  17.59762107720772  0.05647881848185  0.77804799149915
 1  17.18825634983498 -0.03143497429743 -0.67505888328833
 1  18.04070907800780  1.89091563936394 -1.56553954225423
 1  18.25474547064707  2.63604751165116 -0.21073440294029
 1  19.73837639883989  0.68453129932993  0.67493084388439
 1  19.76000431843184  0.52578762836284 -2.50577270247025
 1  20.80344463446345 -0.76332813461346 -1.62983711711171
 1  19.33108583558356 -0.85519323772377 -1.57799587428743
 1  21.28257503610361  2.34352393149315  0.28415916951695
 1  21.57561530183018  1.50817740044004 -0.58063077807781
 1  20.79621627452745  2.46442392959296 -1.05417021332133
 1  0.16262063696370 -3.59183193259326  3.20064841284128
 1 -1.60386006700670 -4.67787506120612  3.69746038263826
 1 -1.52071608490849 -2.97824630173017  4.25648980218022
 8 -11.93920229452945  3.67262206140614 -0.70876268996900
 1 -13.44416492799280  2.17514875497550 -0.81649225422542

