%nproc=4
%Mem=4GB
# td=(NStates=1) iop(3/107=0140000000,3/108=0140000000) iop(3/107=0140000000,3/108=0140000000) CAM-B3LYP/6-31G(d,p) 

TD

0 1
12 -5.64661616821682  1.20881575587559  0.28170677587759
 6 -4.94626501370137 -2.12952141544154 -0.28867573437344
 6 -3.45155394449445  1.13028331313131  2.84264963826383
 6 -6.13686248194819  4.53433669786979  0.68685889468947
 6 -7.86678244534453  1.19379022972297 -2.41539921342134
 7 -4.32805705900590 -0.30651884368437  1.06440777957796
 6 -4.27304083158316 -1.62844654625463  0.68899124872487
 6 -3.23319644414441 -2.39519282208221  1.58773313701370
 6 -2.95247841884188 -1.25561845274527  2.68510506660666
 6 -3.68751617901790 -0.01142377007701  2.16182076727673
 6 -3.56714975437544 -1.65360880228023  4.06982968236824
 6 -2.02695788898890 -2.60199760906091  0.79551485698570
 6 -1.05586723022302 -3.63479105970597  1.56601018901890
 6  0.17244234473447 -3.88339217991799  0.58986718141814
 8  0.31327139143914 -3.48258557215722 -0.51676791099110
 8  1.01258810451045 -4.76257587488749  1.26233084038404
 7 -4.96862767906791  2.59152852975298  1.54062429412941
 6 -3.98132022182218  2.40412783448345  2.55896649995000
 6 -3.76723622732273  3.65600410261026  3.15966652285229
 6 -4.62935348804881  4.65737726602660  2.63047231853185
 6 -5.30285638983898  3.96172426762676  1.57930402270227
 6 -2.88181354445445  3.82817019281928  4.46134032343234
 6 -4.52218874947495  6.13136055655565  2.81659116391639
 8 -3.90956100410041  6.70389827782778  3.77047094699470
 7 -6.81300510041004  2.69295919171917 -0.71973362966297
 6 -6.90034274907491  3.91119073627363 -0.34739642834283
 6 -7.82123731013101  4.55942266706671 -1.26285039453945
 6 -8.31054050735074  3.62046897679768 -2.14684362876288
 6 -7.73352224272427  2.40843685248525 -1.75525147164716
 6 -8.10348333923392  6.05670557995800 -1.24774428322832
 6 -9.45688005130513  3.78788918711871 -3.27592222502250
 6 -8.75619707340734  4.05718386458646 -4.58791519551955
 7 -6.33610202920292 -0.06850186788679 -1.09031412341234
 6 -7.26765629522952  0.05776970837084 -2.11275548624862
 6 -7.48928643584358 -1.30088179177918 -2.73165568816882
 6 -6.59195874467447 -2.17923749554955 -2.09385555125513
 6 -5.94499291469147 -1.41409497459746 -1.13150928132813
 6 -8.54847030483048 -1.69322944894489 -3.82223912011201
 6 -6.19243291039104 -3.54291987588759 -2.10024357945795
 8 -6.45596999249925 -4.51539923832383 -2.69462572767277
 6 -5.01299986208621 -3.54724277687769 -0.86622894269427
 6 -5.09193667106711 -4.64340978207821  0.18151182298230
 8 -5.54170994259426 -4.44450345844584  1.33818018141814
 8 -5.11992169036904 -5.87907910431043 -0.43364650925093
 6 -5.39030659485949 -6.99402125542554  0.49597142694269
 6  2.27723869706971 -5.13157427762776  0.60708466286629
 6  3.41615615061506 -4.18722888378838  0.99074697449745
 6  3.99352874307431 -3.35743861396140  0.16726036103610
 6  3.73361770067007 -3.20597553885389 -1.33920342484248
 6  5.16777320312031 -2.57368241584158  0.72592639143914
 6  6.45229010031003 -2.83490641584158 -0.02923145574557
 6  7.66460178377838 -1.97691704720472  0.54097978847885
 6  8.97991881318132 -2.14812964656466 -0.15487326982698
 6  9.52347872957296 -3.62682332273227  0.08679522182218
 6  9.97085766486649 -1.18322856025603  0.34996751225123
 6  11.32702000440044 -0.93205281218122 -0.33286205240524
 6  12.18414610321032  0.17085171267127  0.20072692029203
 6  13.43208566436644  0.54585945584558 -0.69182394559456
 6  14.46129442844284 -0.56090549314931 -0.65296944784478
 6  14.08754469406941  1.81460763236324 -0.21794104890489
 6  15.33583777417742  2.28541656985699 -1.08989398439844
 6  15.83666625102510  3.64797955075508 -0.58120873407341
 6  17.16565181428143  4.08037587918792 -1.24226816201620
 6  17.28548113781378  4.14982987468747 -2.79850207440744
 6  17.77882728882888  5.32192745804580 -0.59558901780178
 1 -2.69827555035504  0.92262653805380  3.74207467586759
 1 -6.29645762456246  5.69799517991799  0.96767575927593
 1 -8.64618502570257  1.13747405030503 -3.09798527732773
 1 -3.62796386118612 -3.15059037443744  2.09713777457746
 1 -1.84422154605461 -1.15344300590059  2.80407168326833
 1 -3.22019179827983 -2.81867502870287  4.47787133113311
 1 -3.30943173587359 -0.99598950335034  4.89632166196620
 1 -4.84546705840584 -1.75575465636564  4.09172312281228
 1 -2.22446776047605 -3.18724824212421 -0.26510713451345
 1 -1.46048388078808 -1.66579569586959  0.61395951755175
 1 -0.72134756825683 -3.02721401700170  2.54168838753875
 1 -1.60777549914991 -4.61993912511251  1.89147094509451
 1 -1.95501561536154  3.41546107050705  4.25432134183418
 1 -2.62885387548755  4.93704091009101  4.73405966366637
 1 -3.29259225422542  3.23450444794479  5.11446645264526
 1 -5.43037610151015  6.75963015741574  2.31149647104710
 1 -9.76879601310131  2.77817847494749 -3.34437768946895
 1 -9.92490328822882  4.62371621572157 -2.86409670037004
 1 -9.53105290509051  3.86340475447545 -5.27256245854585
 1 -8.23672318171817  4.95041478687869 -4.76268622362236
 1 -7.73779362836284  3.18570792959296 -4.64839476427643
 1 -8.27317490709071 -0.95636617951795 -4.64381537983798
 1 -8.36508749174918 -2.60351375647565 -4.28148078507851
 1 -9.62926300580058 -1.32375919931993 -3.54510141684168
 1 -4.15425278267827 -3.62928775537554 -1.66161944884488
 1  2.33870500350035 -6.08716665966597  0.96799275617562
 1  1.89502024542454 -5.15738271437144 -0.41418486808681
 1  3.75354747704771 -4.10806008780878  2.16513152075207
 1  2.70058504520452 -3.23121874297430 -1.61320386138614
 1  3.84669928322832 -2.27033059235924 -1.64219669016902
 1  4.35723789778978 -3.72170589978998 -1.94244317021702
 1  4.99517955885589 -1.47371379537954  0.55608749224922
 1  5.48178670597060 -2.65849748214821  1.71368624892489
 1  6.49852737943794 -3.90536372847285  0.02109999399940
 1  6.41300146054605 -2.31874948394839 -1.05986658215822
 1  7.26377530883088 -0.90704402950295  0.64621186668667
 1  7.72322442534253 -2.16891347444744  1.62156654195420
 1  8.92726683598360 -2.14738301350135 -1.33493683178318
 1  8.85750026872687 -4.50681945334533 -0.16049984238424
 1  10.47986732753275 -3.77405160726073 -0.53639375287529
 1  9.61792085348535 -3.78403949544954  1.11671211391139
 1  9.51683083368337 -0.19711398519852  0.41049641344134
 1  10.09547964546455 -1.44263079697970  1.38586812681268
 1  12.08561370267027 -1.78997902980298 -0.39949432263226
 1  11.03879996669667 -0.57892079697970 -1.41686301990199
 1  11.61883291679168  1.11559598879888  0.26535698049805
 1  12.36196101940194  0.02469366076608  1.36011429162916
 1  13.15493229392939  0.89826425872587 -1.66869910861086
 1  14.84218355665567 -0.83658187088709  0.44557023702370
 1  14.24981055205521 -1.72329134543454 -0.81206752825283
 1  15.33719470787079 -0.35409860806081 -1.62826971947195
 1  13.29577777197720  2.80670528962896 -0.15412720042004
 1  14.48597529782978  1.73465375457546  0.75465267916792
 1  16.26147780358036  1.54652326502650 -1.07644413511351
 1  14.93069865326533  2.53499741254125 -2.21506288598860
 1  15.18788019261926  4.33368874687469 -0.68444044214421
 1  15.83159592969297  3.63608024942494  0.58472837323732
 1  17.83903758515851  3.28283977517752 -0.89107818741874
 1  16.51167188758876  5.04950147904791 -3.01502386218622
 1  18.21751767526753  4.56235574887489 -3.15904050915091
 1  17.19055925612561  3.28717978797880 -3.24490252485249
 1  18.05835188238824  5.10694191169117  0.47404906910691
 1  18.72169969226923  5.82393654585459 -1.00549746414642
 1  16.94698624952495  6.06603610671067 -0.74807886918692
 1 -5.27686298769877 -7.87516694979498 -0.13895743344334
 1 -6.40732516281628 -6.68267535413541  0.97441094859486
 1 -4.57602577117712 -7.02224379998000  1.34476893349335
 8 -7.68266585818582  6.93426992779278 -0.53421120512051
 1 -8.79767806490649  6.05489113401340 -2.10561624442444

