%nproc=4
%Mem=4GB
# td=(NStates=1) iop(3/107=0140000000,3/108=0140000000) iop(3/107=0140000000,3/108=0140000000) CAM-B3LYP/6-31G(d,p) 

TD

0 1
12 -5.65913742034203  1.21870674497450  0.24693329852985
 6 -5.05881626882688 -2.14886334963496 -0.26989385618562
 6 -3.52730151925192  1.06536682148215  2.82453782708271
 6 -6.23865266096610  4.56363962816282  0.69410961976198
 6 -7.93545931303130  1.13065391609161 -2.29950762426243
 7 -4.42634688798880 -0.27522571437144  1.10715205400540
 6 -4.23297682518252 -1.55108881048105  0.56946929652965
 6 -3.22066519101910 -2.33436673947395  1.42227659135914
 6 -2.95451862286229 -1.35693858475848  2.61107766386639
 6 -3.61919934733473 -0.12414504220422  2.17228181338134
 6 -3.45619865926593 -1.85030847224722  3.93647634703470
 6 -2.02030722392239 -2.70884829412941  0.71219652515252
 6 -1.02507415091509 -3.54917249784978  1.48614220222022
 6  0.26064116461646 -3.88874271497150  0.65495369006901
 8  0.56231629592959 -3.33048036163616 -0.40481671587159
 8  1.05683252895290 -4.74639425672567  1.32716732403240
 7 -4.96195701200120  2.64684406130613  1.47909814151415
 6 -4.05888797859786  2.40767818951895  2.52190279357936
 6 -3.66036554025403  3.66869537173717  3.10426098229823
 6 -4.49884043674368  4.68432996129613  2.56590586188619
 6 -5.31401750595059  3.93671176637664  1.47525361766177
 6 -2.71833719681968  3.67259463526353  4.22199638903890
 6 -4.62563909450945  6.01765918641864  3.00333983878388
 8 -3.95729577757776  6.60525841384138  3.88547244714471
 7 -7.02606640654065  2.67292718851885 -0.65236689298930
 6 -6.96929964476448  3.91267088428843 -0.35127681638164
 6 -7.91327651405140  4.62444916971697 -1.19350345984598
 6 -8.48238769206921  3.62250918081808 -2.08307725212521
 6 -7.83380227072707  2.37439344814481 -1.70778672517252
 6 -8.26663965486549  6.05016492589259 -1.23078258705871
 6 -9.42931729502950  3.81006140434043 -3.17876250905091
 6 -8.70099155285529  4.11584973117312 -4.52095849984998
 7 -6.42662108110811 -0.10256527422742 -1.05166025802580
 6 -7.27973750335033 -0.05025109370937 -2.03879809050905
 6 -7.48234574177418 -1.27511921552155 -2.71580410301030
 6 -6.66929647844785 -2.20509008080808 -2.09974614031403
 6 -5.97398581398140 -1.38034159925993 -1.08322445284528
 6 -8.38517397519752 -1.50301042704270 -3.86657355355536
 6 -6.15813948104810 -3.54459004290429 -2.12335589068907
 8 -6.51211560706071 -4.50464816321632 -2.77585385048505
 6 -5.05652421452145 -3.51486953955396 -0.96287860766077
 6 -5.28278575597560 -4.68701414251425 -0.03422975117512
 8 -5.74091986358636 -4.64561356945695  1.13535989938994
 8 -4.97458715691569 -5.87056825322532 -0.55591873647365
 6 -5.19400696489649 -6.97055890919092  0.36432826262626
 6  2.41591256445645 -5.08829995019502  0.67541149554956
 6  3.32768730373037 -4.12378253915392  1.14882278207821
 6  4.05339472967297 -3.20905377547755  0.34492812781278
 6  3.67385172407241 -3.09759470077008 -1.14983448794879
 6  5.20087651345134 -2.42003705130513  0.83071687048705
 6  6.42585745704570 -2.62959588478848  0.04407587498750
 6  7.58429375297530 -1.65525488098810  0.57275296579658
 6  9.02515333663366 -1.95953078667867 -0.01053883638364
 6  9.48804518621862 -3.33689432983298  0.28874541684168
 6  9.97417799689969 -0.82331256865687  0.49312182768277
 6  11.30183748614862 -0.84671427832783 -0.33998276447645
 6  12.16258394699470  0.28581320882088  0.15026187378738
 6  13.57443989978998  0.34806967686769 -0.50884564776478
 6  14.48746704570457 -0.78679808240824 -0.26776092699270
 6  14.31766770637064  1.70014618621862 -0.18471772657266
 6  15.52383657405741  2.02343037123712 -1.11303629862986
 6  16.05497808220822  3.46566131893189 -0.74615522872287
 6  17.33253850295030  3.94446228782878 -1.36726066126613
 6  17.14139672937294  3.87829272097210 -2.98901112531253
 6  17.89390879697970  5.35825109040904 -0.98952841174117
 1 -2.88918464126413  1.01942621802180  3.75154562296230
 1 -6.43667164596460  5.58327370777078  0.84586357805781
 1 -8.80643105030503  0.81629193209321 -3.02082756155616
 1 -3.58568963376338 -3.24440975637564  2.03180124092409
 1 -1.81856898079808 -1.10543820542054  2.65763703980398
 1 -2.63033281238124 -2.63001616281628  4.18808235223522
 1 -3.55585637833783 -0.98059796419642  4.70573260306031
 1 -4.46707921962196 -2.11033011391139  3.69589353985398
 1 -2.62807812151215 -3.19493901120112 -0.23968459225923
 1 -1.35349318171817 -1.72175129142914  0.39258738033803
 1 -0.64362979647965 -2.81054234983498  2.37633185188519
 1 -1.48601332293229 -4.39489662086209  2.14268606660666
 1 -1.67666778057806  3.38041756615662  4.07601351105111
 1 -2.69050004010401  4.84197140314031  4.40049630733073
 1 -3.05350834583458  3.15149614711471  5.05245025102510
 1 -5.52120518441844  6.58508270267027  2.47746306770677
 1 -10.20461959545955  2.99035969306931 -3.29125237693769
 1 -10.12816361426143  4.57228107220722 -2.80847113781378
 1 -9.33172297209721  4.35803421742174 -5.39846504880488
 1 -8.10556006540654  4.96521626702670 -4.32053200820082
 1 -8.16687653665367  3.20179953875388 -4.70876080088009
 1 -8.31582917251725 -0.98939948284829 -4.77021802010201
 1 -8.13334431743174 -2.48562196729673 -4.53894653165317
 1 -9.49392947244725 -1.45176199959996 -3.53015992269227
 1 -4.14862221962196 -3.59342416901690 -1.41838512541254
 1  2.40135126812681 -6.12168011101110  1.15917187408741
 1  2.07780852425243 -5.10463743984398 -0.31495494509451
 1  3.75229735203520 -4.12677195899590  2.12538754635464
 1  2.68894388108811 -3.48424404550455 -1.41801434243424
 1  3.82911752505251 -2.06003956325633 -1.59269173967397
 1  4.44274644864486 -3.69602333153315 -1.67771669756976
 1  4.80124016491649 -1.28462488648865  0.71037292079208
 1  5.27928645594559 -2.62670430283028  1.90239511981198
 1  6.70146767346735 -3.75746893899390  0.24973285728573
 1  6.34641480188019 -2.27670527952795 -1.13873446894689
 1  7.32026095739574 -0.49534285938594  0.31100834633463
 1  7.72262436533653 -1.62703928702870  1.47447183248325
 1  8.71692580188019 -1.77088536373637 -0.99607294539454
 1  8.84941946064606 -4.28802757415742 -0.08887267966797
 1  10.58140748154815 -3.42300650275028 -0.09302941644164
 1  9.58288735013501 -3.44486557805781  1.33415385808581
 1  9.56141529212921  0.13478920512051  0.45432079587959
 1  9.94695479297930 -1.18359489338934  1.51769130913091
 1  11.88859400070007 -1.75339537143714 -0.13017739093909
 1  11.11218730543054 -0.95822872777278 -1.39265059865987
 1  11.67218825232523  1.33517794699470 -0.13033258845885
 1  12.45916073937394  0.26920811221122  1.10884916511651
 1  13.12120892159216  0.37852228452845 -1.47380961966197
 1  14.66557589588959 -0.95951416411641  0.98621430143014
 1  14.22745831683168 -1.72305132143214 -0.61475779727973
 1  15.41893288168817 -0.47402060026003 -0.86864375687569
 1  13.76267446164617  2.55546016511651 -0.28468025572557
 1  14.71074777507751  1.54029431863186  0.92934014791479
 1  16.27493914971497  1.43366197889789 -1.14108059875988
 1  14.98938452185219  1.84747866066607 -2.28677005670567
 1  15.35238664326433  4.27548292629263 -1.04261625972597
 1  16.37944071417142  3.31133777517752  0.37201710211021
 1  18.07066074747475  3.17697918911891 -1.23067214681468
 1  16.37963868426842  4.39897642654265 -3.41158351815182
 1  18.12886881038104  4.53646315961596 -3.47672227732773
 1  16.96463666386639  2.73297436743674 -3.24455248984898
 1  17.97716376357636  5.28440965846585  0.04896656085609
 1  18.68075559785979  5.45963011521152 -1.35222213661366
 1  17.32728427932793  6.07788729182918 -1.11640570187019
 1 -5.02537783918392 -8.02186161926193  0.02540900320032
 1 -6.40826525682568 -6.85467255385539  0.53856736423642
 1 -4.70826899549955 -6.62216379197920  1.29161361796180
 8 -7.87304489608961  6.91165766656666 -0.42137992199220
 1 -9.12077037413741  6.24736038093809 -1.88652433523352

