%nproc=4
%Mem=4GB
# td=(NStates=1) iop(3/107=0140000000,3/108=0140000000) iop(3/107=0140000000,3/108=0140000000) CAM-B3LYP/6-31G(d,p) 

TD

0 1
12 -5.73245475207521  1.19818469276928  0.14996360156016
 6 -5.00371075827583 -2.11142960626063 -0.40320718751875
 6 -3.48427721682168  1.16807709250925  2.70663603690369
 6 -6.34385318101810  4.54800806500650  0.71496170497050
 6 -8.12676844394439  1.13516436713671 -2.41970964446445
 7 -4.29847410071007 -0.27602579437944  0.99072041084108
 6 -4.25859938743874 -1.56200990259026  0.56954930453045
 6 -3.23871699619962 -2.24717802060206  1.48526288998900
 6 -2.87768093909391 -1.34222711361136  2.58911546764676
 6 -3.59134656205621 -0.11458408610861  2.15484006920692
 6 -3.36672971237124 -1.73092653405341  4.00991369076908
 6 -2.01561675487549 -2.62914032333233  0.59149445494549
 6 -0.88471011451145 -3.38416599719972  1.35980956895690
 6  0.33761886238624 -3.75649949064906  0.62669086378638
 8  0.55823588788879 -3.32292960656066 -0.52115835003500
 8  1.12209905560556 -4.51450106740674  1.35426003330333
 7 -5.03770458675868  2.61647102400240  1.44419465116512
 6 -4.08258034783478  2.39468689038904  2.45786638993899
 6 -3.91784128782878  3.58418692089209  3.27271782798280
 6 -4.57674822752275  4.56154768306831  2.58720799209921
 6 -5.37785388958896  3.93529162436244  1.52480857315732
 6 -2.94108947204720  3.73639101490149  4.43367755715572
 6 -4.62857938853885  6.04180160066007  3.00461996679668
 8 -3.97031707970797  6.57514540254025  3.80109400930093
 7 -7.06672047194720  2.60535043084308 -0.72910456675668
 6 -7.10504321912191  3.91371098829883 -0.39991167986799
 6 -7.99627481388139  4.62250897569757 -1.21501561106111
 6 -8.53195264856486  3.60937786768677 -2.03469241364136
 6 -7.97917680818082  2.32677868666867 -1.63858980548055
 6 -8.48034102500250  5.95784569396940 -1.10732024082408
 6 -9.49627399069907  3.76340673887389 -3.17869250205020
 6 -8.83891534523452  4.03927207340734 -4.56833323732373
 7 -6.37780619961996 -0.10179519721972 -1.15639073107311
 6 -7.50263979357936 -0.10926699529953 -2.14300851155116
 6 -7.61657916511651 -1.38142984658466 -2.70969349194919
 6 -6.63878342714271 -2.10090966276628 -2.04384054975498
 6 -5.93697211261126 -1.29908347344734 -1.10263639403940
 6 -8.54111956975698 -1.71271139713971 -3.86621351755176
 6 -6.20829449654966 -3.59362494639464 -1.91175473057306
 8 -6.45443983948395 -4.57187488588859 -2.60740700580058
 6 -5.08413697579758 -3.53959201180118 -0.87127944774477
 6 -5.30127760516052 -4.58222366346635  0.08535220702070
 8 -5.78101387298730 -4.46782579067907  1.24702106550655
 8 -4.95857555575558 -5.85241643804380 -0.36244938953895
 6 -5.51517908210821 -6.94000585388539  0.52054388418842
 6  2.32944391759176 -4.91676279647965  0.50799475387539
 6  3.50440497549755 -4.09958011891189  0.95031293109311
 6  4.04776416661666 -3.13119598969897  0.16379001400140
 6  3.74131847074707 -2.72608755005501 -1.33089259375938
 6  5.29147557335734 -2.32766781438144  0.67847164596460
 6  6.57079195049505 -2.61677460266027 -0.02151068366837
 6  7.73317864146415 -1.82254160966097  0.50342603310331
 6  9.13809463076308 -2.02323715731573 -0.19252703520352
 6  9.76854323602360 -3.39203984438444  0.05170171247125
 6  10.06698727782778 -0.88277851525152  0.42606512201220
 6  11.49761706410641 -1.01558116501650 -0.24733349954995
 6  12.32890057865787  0.24707933543354  0.20878772637264
 6  13.75482793859386  0.33779864976498 -0.50343510671067
 6  14.70733903290329 -0.72904230683068 -0.17144129502950
 6  14.32137807740774  1.69240541214121  0.08024877007701
 6  15.53796798719872  2.05148317651765 -0.87694268926893
 6  16.15485807020702  3.43363811661166 -0.61767238043804
 6  17.44654990409041  3.70193803540354 -1.46054999019902
 6  17.14136672637264  3.76864175587559 -2.87394961916192
 6  17.99012841894189  5.13094836013601 -0.93885334423442
 1 -2.81052677547755  1.29654392979298  3.62620308870887
 1 -6.32880085888589  5.55998137853785  0.79983897559756
 1 -8.93983439063906  1.04112441534153 -3.19244472327233
 1 -3.68680974577458 -3.08882419781978  2.00249831063106
 1 -1.79737686158616 -1.04064172577258  2.64845612171217
 1 -2.63724350345034 -2.58965212641264  4.43706725072507
 1 -3.19380017271727 -0.89404930933093  4.96305833563356
 1 -4.49683219491949 -1.93701278217822  4.05205915641564
 1 -2.13756907060706 -3.04557407470747 -0.23113373717372
 1 -1.54149198159816 -1.72871198749875  0.31262938453845
 1 -0.59827526102610 -2.93592488808881  2.27529174787479
 1 -1.11379610121012 -4.27075420662066  1.81930372837284
 1 -1.90990110391039  3.70869039343934  3.80373628332833
 1 -2.99563055315532  4.74492169816982  4.74632088978898
 1 -3.15686868186819  3.03584458195820  5.27715272127213
 1 -5.37064012791279  6.54865906030603  2.47143246464646
 1 -10.15482461596160  2.83972462956296 -3.07235048674867
 1 -10.16913771167117  4.42632647674767 -2.74204449514951
 1 -9.71120091989199  4.03245165916592 -5.21940714301430
 1 -8.18337784718472  4.90274001940194 -4.45982593759376
 1 -8.17007685668567  3.13866322512251 -4.92382230703070
 1 -8.25642323192319 -0.83710425332533 -4.76633763206321
 1 -8.15190617361736 -2.62764616971697 -4.44792742974297
 1 -9.62989306880688 -1.62855967936794 -3.64054096079608
 1 -4.07242459985999 -3.67334216081608 -1.33760704760476
 1  2.57140827382738 -5.89532747574757  0.90578653555356
 1  1.95286603000300 -4.76274325042504 -0.45209865946595
 1  3.82732485478548 -4.16522580438044  2.04776978457846
 1  2.73961894859486 -2.96923254435444 -1.71351389238924
 1  3.79331394469447 -1.67294085338534 -1.53989646014601
 1  4.45357753175318 -3.19829355855586 -1.91524044994499
 1  5.07424746564656 -1.06563298729873  0.53579546304630
 1  5.51409993729373 -2.46123775617562  1.71890677097710
 1  6.69856738343834 -3.82645583768377  0.13001088508851
 1  6.68810897129713 -2.65480308930893 -1.09112970847085
 1  7.40955988728873 -0.78692201730173  0.45022226772677
 1  7.64624672757276 -2.10495707880788  1.65260964626463
 1  8.99112322162216 -1.69015729092909 -1.30596393449345
 1  8.97938245694569 -4.24559333073307 -0.13821761416142
 1  10.62291163196320 -3.74218842094209 -0.63346345984598
 1  10.00781984338434 -3.60649174067407  1.07919836253625
 1  9.59598874947495  0.02605833203320  0.45213057685769
 1  10.10615071257126 -1.10503703760376  1.47268680868087
 1  12.13845898719872 -2.01685171707171 -0.04213858705871
 1  11.15688177487749 -0.90418332323232 -1.39174050765076
 1  11.58665969946995  1.10383481268127  0.01427187198720
 1  12.26337116041604 -0.07267607620762  1.27462574277428
 1  13.58937573827383  0.46783121542154 -1.55948818751875
 1  14.77849718801880 -0.84279249194919  0.87727340734073
 1  14.26282185318532 -1.71997101340134 -0.35082140364036
 1  15.52423341174118 -0.63099629782978 -0.83693058555856
 1  13.43589178337834  2.47530214931493 -0.03803559125913
 1  14.56234293459346  1.42757304650465  1.10197741164116
 1  16.45787744354435  1.27852646534653 -0.64536102680268
 1  15.21062664606461  1.80723463626363 -1.90195157485749
 1  15.48913031763176  4.33869924792479 -0.83415541364136
 1  16.17369013911391  3.62611925332533  0.33402330273027
 1  18.07561124252425  2.90295178637864 -1.28042712231223
 1  16.31962268266826  4.62778930783078 -3.13609596939694
 1  18.06602252575258  4.09094860816082 -3.38064266936694
 1  16.88435863606361  2.71520259025903 -3.52197023162316
 1  18.13752980018002  5.18528974647465  0.19239090329033
 1  19.03072059435944  5.51311546374637 -1.22663957835784
 1  17.11507305820582  6.04170367346735 -1.11654571587159
 1 -5.43287858925893 -7.81566099919992  0.01065752805280
 1 -6.60153458375838 -6.81091817841784  0.80699420692069
 1 -4.90074824342434 -6.80570214581458  1.49837429402940
 8 -8.02571016261626  6.79110561136114 -0.32400018401840
 1 -9.41342964006401  6.18876452135213 -1.85736141894189

