%nproc=4
%Mem=4GB
# td=(NStates=1) iop(3/107=0140000000,3/108=0140000000) iop(3/107=0140000000,3/108=0140000000) CAM-B3LYP/6-31G(d,p) 

TD

0 1
12 -5.61595310191019  1.24480935523552  0.25606421162116
 6 -4.96590697789779 -2.12241070437044 -0.35502236903690
 6 -3.45491428052805  1.19539982478248  2.80016538983898
 6 -6.14177297299730  4.54411767596760  0.56144635343534
 6 -7.98832459955996  1.23141399209921 -2.26280395389539
 7 -4.24075832913291 -0.28028622042204  1.01017235603560
 6 -4.19967349484949 -1.54411811341134  0.60669301890189
 6 -3.17735085958596 -2.33905720852085  1.46933129682968
 6 -2.96784995599560 -1.31663455435544  2.61943849995000
 6 -3.55994342174217 -0.08384101180118  2.19567415261526
 6 -3.31283432283228 -1.78207164856486  4.00037273667367
 6 -1.95288048124812 -2.71634904420442  0.57507281278128
 6 -1.03987563106311 -3.55385296589659  1.44053764176418
 6  0.17951305180518 -4.00920476117612  0.65528372307231
 8  0.49295936023602 -3.53292060566057 -0.43632986718672
 8  0.99736658235824 -4.79169878717872  1.29231383868387
 7 -4.86208702500250  2.66533591049105  1.47894812651265
 6 -3.98235032483248  2.39802722442244  2.42840344364436
 6 -3.75680518421842  3.71853035523552  3.16514707090709
 6 -4.53023357605761  4.61656318461846  2.56805607690769
 6 -5.34280038423842  3.99722781798180  1.55193128542854
 6 -2.78699406250625  3.76429380518052  4.26299048844885
 6 -4.76705323592359  6.06259367986799  2.98254775957596
 8 -4.15481552955296  6.63221110911091  3.80554445434543
 7 -6.88071187108711  2.64924482028203 -0.78684034033403
 6 -6.88236095089509  3.95776539373937 -0.47886957565757
 6 -7.93803899029903  4.63733045784578 -1.20071418091809
 6 -8.48695814911491  3.57371430133013 -2.02858180258026
 6 -7.77111600210021  2.47784379317932 -1.78338428492849
 6 -8.41374436533653  6.12313222262226 -1.25864537333733
 6 -9.45881024432443  3.70134053225323 -3.15101973477348
 6 -8.88967042074207  3.95947409360936 -4.51822822682268
 7 -6.38298671767177 -0.12907792549255 -0.98479357135714
 6 -7.27883741334133 -0.00453652225223 -2.12191640234023
 6 -7.53175068226823 -1.26300800440044 -2.71480400300030
 6 -6.63412296109611 -2.11673124492449 -2.09505567126713
 6 -5.90348876427643 -1.37929149424942 -1.06502263266327
 6 -8.48761421922192 -1.58581870787079 -3.81725862206221
 6 -6.26545021212121 -3.53328891279128 -2.05527908300830
 8 -6.66127052255226 -4.56148384678468 -2.64596086118612
 6 -5.14010257235724 -3.61520957355736 -0.87178949874987
 6 -5.33649112651265 -4.58428386948695  0.24349802160216
 8 -5.70453622522252 -4.36278528662866  1.40066643004300
 8 -5.21042074027403 -5.85226642304230 -0.25458860346035
 6 -5.48862642684268 -6.92981483478348  0.57789961976198
 6  2.31719269246925 -5.04047516771677  0.52133608800880
 6  3.32014654965497 -4.06940710161016  0.97679557935794
 6  4.06314570477048 -3.23720659075908  0.11459509450945
 6  3.71258559745975 -3.06306124742474 -1.36744624912491
 6  5.28293471927193 -2.51554660226023  0.66095989478948
 6  6.64416928822882 -2.81926485168517  0.02696416381638
 6  7.73296862046205 -1.90227958345835  0.57504319481948
 6  9.15156597789779 -2.17597243084308 -0.08149593209321
 6  9.61697807950795 -3.64280492089209  0.06548309060906
 6  10.14010458955896 -1.15333557095710  0.34590710621062
 6  11.43362066446645 -1.00934054095410 -0.43821258745875
 6  12.28177586618662  0.23261788928893 -0.02021517391739
 6  13.57424988078808  0.40098496839684 -0.70560532373237
 6  14.57125542454245 -0.73835323792379 -0.48282243314331
 6  14.23242918251825  1.77158332993299 -0.19939919471947
 6  15.42091628202820  2.20515854405441 -0.97552254725473
 6  15.89137172157216  3.56903165596560 -0.49701031423142
 6  17.24696994609461  4.05854369596960 -1.18094202940294
 6  17.15793838353835  4.24762965466547 -2.76994921912191
 6  17.89659906600660  5.32509777507751 -0.54047350625062
 1 -2.74272999579958  1.19484375977598  3.69597006540654
 1 -6.47853583238324  5.57790317071707  0.63874286598660
 1 -8.72947335453545  1.17880818371837 -2.86870234903490
 1 -3.58185925072507 -3.30762607800780  1.69221728252825
 1 -1.93649077297730 -1.13290095169517  2.70635191129113
 1 -2.95029480858086 -2.71020418161816  4.17131067506751
 1 -3.13995478817882 -1.09771967636764  4.89930195999600
 1 -4.39466197789779 -2.06540562146215  4.14064801530153
 1 -2.05725103880388 -3.23011252855285 -0.27908853265327
 1 -1.44512234463446 -1.66164528082808  0.23571169276928
 1 -0.60230566406641 -3.13152444804480  2.49310352905291
 1 -1.59162388398840 -4.47334446564656  1.70249204720472
 1 -1.63039315311531  3.70882040644064  3.98740465016502
 1 -2.96512750285029  4.79269647564756  4.74982123982398
 1 -2.84367736273627  2.85772677017702  4.78917392339234
 1 -5.61149421332133  6.61327552195220  2.43957927932793
 1 -9.79871900540054  2.74048470557056 -3.00619387108711
 1 -10.34191498939894  4.52655649974997 -2.93927421812181
 1 -9.71964176397640  4.03775218921892 -5.26082128442844
 1 -8.10108961836184  4.75704544994499 -4.38144809980998
 1 -8.13643349234923  3.10720007880788 -4.88241816661666
 1 -8.10878846844684 -1.28586912981298 -4.70834183248325
 1 -8.73819480248025 -2.73264666976698 -3.96061869886989
 1 -9.35807588708871 -0.99614643804380 -3.46247315401540
 1 -4.24466182358236 -3.71089591619162 -1.38477176407641
 1  2.47163829682968 -6.00737868086809  0.92735869276928
 1  2.08861960536054 -5.16223319941994 -0.59772322192219
 1  3.72964508680868 -4.17029631143114  1.99999500710071
 1  2.72629761646165 -3.25789141024102 -1.42907544854485
 1  3.85178979227923 -2.00346390569057 -1.55422789328933
 1  4.40004217821782 -3.91751548074807 -1.86900582648265
 1  5.09040908180818 -1.35627205120512  0.36141802530253
 1  5.31456998429843 -2.32989462186219  1.71382626292629
 1  6.82106963366337 -3.94918811091109  0.14005188918892
 1  6.57354751515151 -2.66060366936694 -1.07994859035904
 1  7.25822475377538 -0.87171049614961  0.23354059955996
 1  8.00949305220522 -1.83048963206321  1.69354373967397
 1  9.10400450975097 -2.04827310251025 -1.17898123622362
 1  9.04544906360636 -4.21381015241524 -0.49944373677368
 1  10.64971431223122 -3.61498570067007 -0.20214032753275
 1  9.63541260266027 -4.03024411591159  1.05589603230323
 1  9.39326847744775 -0.21382565636564  0.30175553935394
 1  10.42830292779278 -1.46070260416042  1.39592913291329
 1  12.08673381468147 -1.92366239813981 -0.57149152235224
 1  11.06408249494950 -0.64880778567857 -1.48117945154515
 1  11.55611664516452  0.99247367656766 -0.14765432063206
 1  12.43018784208421  0.19214040544054  1.15967424762476
 1  13.28212501320132  0.39149358165817 -1.68270050875087
 1  14.59244858315831 -0.67452566526653  0.73588926892689
 1  14.37786335733573 -1.50336935323532 -0.84072039353935
 1  15.66101709010901 -0.43524672287229 -0.75826271877188
 1  13.47888608280828  2.52461708080808  0.05582379467947
 1  14.57072377267727  1.69284957415742  0.85187240114011
 1  16.22956461226122  1.51439005170517 -0.89813630433043
 1  15.36928251165116  2.16541045384538 -2.09119049874987
 1  15.07135854045405  4.57331270927093 -0.65924792289229
 1  16.00252302240224  3.70685732713271  0.44033393379338
 1  17.92510619201920  3.24483597479748 -1.14955403500350
 1  16.41768248864886  5.13626015491549 -2.83653601340134
 1  18.12723864736474  4.59519903320332 -3.21476608170817
 1  16.74355455565557  3.47106817681768 -3.33447148174817
 1  17.92223827102710  5.26745796329633  0.58008967316732
 1  18.96525404770477  5.35039919211921 -0.72527944234423
 1  17.16209776067607  6.08911841494149 -0.66821088238824
 1 -5.54652995439544 -7.81875130823082 -0.07263080078008
 1 -6.47387181748175 -6.59139622622262  1.02050555805581
 1 -4.81750991959196 -6.95874745034503  1.31183564016402
 8 -7.87673526512651  6.93005950675068 -0.53994177817782
 1 -9.12793109020902  6.27584322922292 -2.24674035683568

