%nproc=4
%Mem=2GB
# td=(NStates=1) iop(3/107=0140000000,3/108=0140000000) iop(3/107=0140000000,3/108=0140000000) CAM-B3LYP/6-31G(d,p) 

TD

0 1
12 -6.70039261136114  0.63710285438544 -0.11274365486549
 6 -4.45651275777578 -1.98446686848685  0.18260853785379
 6 -4.19222103750375  2.62461409450945  0.81409429102910
 6 -8.83603630833083  3.31462548664866 -0.23182268396840
 6 -9.32912100970097 -1.73417644724472 -0.66655671437144
 7 -4.60063513541354  0.37265666336634  0.34270330243024
 6 -3.79401666726673 -0.71420112691269  0.46856741214121
 6 -2.36185960456046 -0.56844860406041  0.93935599789979
 6 -2.51391135693569  0.92004215301530  1.43675583808381
 6 -3.90278654155416  1.34758484368437  0.93442821752175
 6 -2.37030331603160  1.23435523142314  2.78926348914892
 6 -1.50297904630463 -0.94836740014001 -0.17186586028603
 6 -0.23961207950795 -1.22048375497550  0.41823089658966
 6  0.85268634783478 -1.61008824572457 -0.80443861766177
 8  0.69343941204120 -1.35960857335734 -1.95412640284028
 8  2.01414170077008 -2.32996329492949 -0.20868579107911
 7 -6.30330207240724  2.66524689468947  0.03823757165717
 6 -5.40216077697770  3.31958060126013  0.50928722492249
 6 -5.60554476967697  4.75034471927193  0.67589245784578
 6 -6.99920063346335  4.91871796229623  0.39127571087109
 6 -7.33889559345935  3.64456326472647 -0.03409857845785
 6 -4.71557647794779  5.82868029852985  1.03024069206921
 6 -7.79892145344534  6.08878579867987  0.37436696039604
 8 -7.18372228842884  7.15939755635564  0.54364222102210
 7 -8.71664521802180  0.78704956415642 -0.19105175427543
 6 -9.47825149754975  1.93519825512551 -0.40567161946195
 6 -10.69759638993899  1.72213208430843 -0.72935871707171
 6 -10.83680803830383  0.21895279967997 -0.72520337583758
 6 -9.51045270857086 -0.23963212641264 -0.49044112081208
 6 -11.94053082838284  2.66908310141014 -0.69625427622762
 6 -12.20399351985198 -0.53665722802280 -1.06665479917992
 6 -12.12492935503550 -1.01742390759076 -2.51788458315832
 7 -6.84285076797680 -1.33418597989799 -0.16175882038204
 6 -8.01520418201820 -2.28183818051805 -0.49444264226423
 6 -7.49171675677568 -3.50092741514151 -0.55695670577058
 6 -6.22697831903190 -3.71827098799880 -0.21482974357436
 6 -5.82618890759076 -2.27606642114211 -0.00517433313331
 6 -8.57765628912891 -4.84616199399940 -0.78778159405941
 6 -5.00460666516652 -4.45516131423142 -0.09511148544855
 8 -4.94441619031903 -5.61268180648065  0.00803130973097
 6 -3.77796152155216 -3.53390394959496  0.51407605480548
 6 -3.35712922382238 -3.70325650115012  1.72529224222422
 8 -3.96361160126013 -3.83228996379638  2.69674834463446
 8 -2.08437011191119 -3.64541084638464  1.82828276747675
 6 -1.47515603770377 -4.00374546464646  3.00777520272027
 6  2.99391128392839 -2.58588376527653 -1.16655789988999
 6  4.07425119251925 -1.60505750685068 -0.96317184948495
 6  5.11203195859586 -1.24625149654965 -1.81455765736574
 6  5.35139912371237 -2.10090322502250 -3.07045402760276
 6  5.98568239283928 -0.25287294019402 -1.46902346084608
 6  7.23530222422242 -1.00521630373037 -0.70118685598560
 6  8.28463102340234  0.32971860646065 -0.66393487398740
 6  9.68419150855085 -0.23520044034403  0.07533922822282
 6  9.44805232153215 -0.58542735743574  1.58688305710571
 6  10.79429175917592  0.73397825202520 -0.14627978957896
 6  12.04495976647665  0.08454976217622  0.43870218141814
 6  13.24168571117112  1.05783305800580  0.10403330173017
 6  14.59915625082508  0.49325260336034  0.51808647074707
 6  14.85223021112111  0.23313103260326  2.08659858385839
 6  15.80772040044005  1.51090599259926  0.07174037933793
 6  17.21638111621162  0.80466569096910  0.18667179327933
 6  18.14617416481648  1.86894408560856 -0.32949309610961
 6  19.61180338143814  1.30276877167717 -0.38032811651165
 6  19.69113891519152  0.23407883818382 -1.62495828702870
 6  20.50707787668767  2.53786520452045 -0.50182527842784
 1 -3.28943958225822  3.30712196319632  1.10226962866287
 1 -9.50947492999300  4.08178726382638 -0.14030766466647
 1 -10.07142963456345 -2.35840623992399 -1.19133195909591
 1 -2.34823734053405 -1.16952457025703  1.76039608790879
 1 -1.56746608520852  1.29728020422042  0.87499395279528
 1 -1.41224260796080  0.61063937833783  3.38562927402740
 1 -2.69089726362636  2.42855143154315  3.00970708850885
 1 -3.38743107560756  0.71488937423742  3.17676354545454
 1 -1.90957997829783 -1.75792706570657 -0.81981976877688
 1 -1.62996816581658 -0.05119659255926 -0.92374216501650
 1  0.46604460276028 -0.32128356165617  1.14253011821182
 1 -0.13922764256426 -2.35414174797480  0.90716094819482
 1 -3.47632216261626  6.20715854375437  0.53440839853985
 1 -5.51738201880188  6.78354103000300  1.02446935303530
 1 -4.56944797299730  5.49749871087109  1.97736550885088
 1 -8.45539855395540  6.28319342854285 -0.26941331713171
 1 -12.44519407300730 -1.44951581908191 -0.29914434163416
 1 -12.97246346134613  0.13773017281728 -0.97131476787679
 1 -12.79831765486549 -2.02479459485949 -3.04012112921292
 1 -12.57108407220722  0.08819624112411 -3.24643681318132
 1 -11.25642246664667 -1.41711502850285 -3.15095170257026
 1 -8.59698888218822 -4.81300785638564 -1.98575080308031
 1 -8.00102531713171 -5.71955196779678 -0.45835548744875
 1 -9.39000628062806 -4.76942890409041 -0.04917030753075
 1 -3.06080566196620 -3.37407113201320 -0.60936924372437
 1  3.41400301570157 -3.68674594839484 -1.15139085618562
 1  2.73584787358736 -2.72725864086408 -2.01302153745374
 1  3.71504883258326 -0.71381412981298 -0.03384978337834
 1  4.49792284928493 -2.13902737523752 -3.85667578257826
 1  5.90743432183218 -1.98415709110911 -3.55638686258626
 1  5.66301012841284 -3.15133774807481 -2.68113229702970
 1  6.04931535343534  0.47968330573057 -2.49584220142014
 1  5.26277138653865  0.73258880668067 -0.74881914531453
 1  7.19630080898090 -1.10675887298730  0.34213593519352
 1  7.44709010741074 -2.03982277257726 -1.37512698859886
 1  8.58411054245424  0.66425702050205 -1.72508529382938
 1  7.70396889498950  1.36514170237024 -0.16892118371837
 1  9.89408185528553 -1.56162360606061 -0.57272443004300
 1  8.76507875217522 -1.36352516821682  1.72311067186719
 1  10.62889895929593 -1.19324320552055  2.30067195859586
 1  9.39768297989799  0.33607238483848  2.42010331543154
 1  10.64260789858986  0.89697245714572 -1.27063423502350
 1  10.50834058065806  1.95672454805481  0.39016289658966
 1  11.79824736693669 -0.50480291979198  1.69480316361636
 1  12.25255740974097 -0.94972319291929 -0.04333733123312
 1  13.24368923892389  1.43607315231523 -1.01616052065206
 1  12.63337538233823  1.96476072737274  0.79844563396340
 1  14.89409083488349 -0.42668018401840  0.04427623642364
 1  14.97330723062306  1.40570096559656  2.70455322832283
 1  13.78397567106711 -0.46854452635264  2.96592409050905
 1  15.72753978707871 -0.20726430953095  2.21184766246625
 1  15.56338747364736  1.75242523592359 -0.80281025572557
 1  15.87774180678068  2.45992552805280  0.58881720492049
 1  17.41393270837084  0.34542771337134  1.07199738643864
 1  17.15245276947695  0.03503167236724 -0.55832721012101
 1  17.99296430353036  2.39524607240724 -1.28793178147815
 1  18.10334033013302  2.71558546544654  0.59024569506951
 1  19.89706226742674  0.67359020522052  0.53207655845585
 1  19.58415673367336  0.95613066266627 -2.78034015921592
 1  20.73571786178618 -0.36037783958396 -1.55081921532153
 1  19.17415014201420 -0.61637935633563 -1.50843891859186
 1  19.99165594419442  3.15528510761076  0.38365911951195
 1  21.55987372767277  2.25467204990499 -0.23409612461246
 1  19.92823947684768  3.23391087828783 -1.34655945224522
 1 -0.46816244134413 -4.20610335973597  2.67481582958296
 1 -2.11517119811981 -4.84805207890789  3.30333096969697
 1 -1.76361037433743 -3.25341381848185  3.84015816901690
 8 -11.63605197949795  3.95017981718172 -0.72271408510851
 1 -13.01737224872487  2.14428566866687 -0.60922152715271

