%nproc=4
%Mem=2GB
# td=(NStates=1) iop(3/107=0140000000,3/108=0140000000) iop(3/107=0140000000,3/108=0140000000) CAM-B3LYP/6-31G(d,p) 

TD

0 1
12 -6.75937850995100  0.54889403350335  0.27997561706171
 6 -4.43660076657666 -2.00809923172317  0.48340861786179
 6 -4.18894070947095  2.85531716481648  0.95105798739874
 6 -8.90589329402940  3.23811783588359 -0.25496499819982
 6 -9.14724282188219 -1.70546357595760 -0.63207326602660
 7 -4.70102517441744  0.45960535823582  0.53012204430443
 6 -3.96626389198920 -0.82494220102010  0.66636719211921
 6 -2.49314273287329 -0.43100485968597  0.95999806210621
 6 -2.49953991979198  0.98221837063706  1.17153931643164
 6 -3.88518478137814  1.46540662586259  0.75153992869287
 6 -2.09345563126313  1.48116991289129  2.54923948674868
 6 -1.50142889128913 -1.04951751515152 -0.23053172687269
 6  0.03597547924792 -1.12634434103410  0.26173524702470
 6  0.81397247644764 -1.19302653955396 -1.00127830163016
 8  0.62438250635063 -0.75728834133413 -1.97466845704570
 8  1.83075336193619 -1.99956025462546 -0.72167709020902
 7 -6.43021476367637  2.62283265326533  0.21339508740874
 6 -5.37003756465647  3.33259190239024  0.58223451965197
 6 -5.74934915011501  4.78879856465647  0.73646851545155
 6 -7.08433914731473  4.88585467596760  0.32185876917692
 6 -7.56060776467647  3.44760356875688  0.01446627802780
 6 -4.72045696599660  5.81722915341534  0.91143881188119
 6 -7.83501506280628  6.03964088418842  0.23393291699170
 8 -7.25411932813281  7.22170378697870  0.14813267006701
 7 -8.70331388488849  0.70599145834583 -0.36121877097710
 6 -9.35554922732273  1.85361009630963 -0.45158621092109
 6 -10.80764739503950  1.58381825292529 -0.77956373757376
 6 -10.94881923942394  0.21643254765477 -0.88965982148215
 6 -9.46370803410341 -0.40921908510851 -0.51060313701370
 6 -11.84366114141414  2.60908710181018 -0.93296794759476
 6 -12.10482360286029 -0.43820738303830 -1.22469060276028
 6 -12.11852871497150 -0.97420958615862 -2.59668246294629
 7 -6.95927241014101 -1.36596915821582  0.00320767626763
 6 -7.95539820142014 -2.23091308800880 -0.23541673967397
 6 -7.73694127922792 -3.61707903030303 -0.33118412851285
 6 -6.26192181338134 -3.61230039093909  0.04616635603560
 6 -5.95713200190019 -2.28042685718572  0.22881906620662
 6 -8.52651117461746 -4.73862123992399 -0.69478229412941
 6 -5.10996720122012 -4.43215901400140  0.13999202490249
 8 -4.88067981668167 -5.70262080038004  0.22847335393539
 6 -3.89590331573157 -3.42625318451845  0.61902654985499
 6 -3.30790430133013 -3.65493166866687  1.88600831383138
 8 -3.86549178927893 -3.94903163796380  2.97696636643664
 8 -1.91489316421642 -3.73032933823382  1.69160910011001
 6 -1.17941646374637 -4.11335642574257  2.99067349254926
 6  2.90016190899090 -2.22524770167017 -1.63312455655566
 6  4.23603737113711 -1.31089809090909 -1.20365589788979
 6  5.20900165556556 -1.12242911431143 -2.08702490409041
 6  5.20699468326833 -2.02348548324832 -3.29998698089809
 6  6.26402022662266 -0.10197785068507 -1.80556711521152
 6  7.32824151815182 -0.80871665376538 -1.15538227552755
 6  8.50195275557556  0.20335597019702 -0.50460894139414
 6  9.66869995939594 -0.46923384368437 -0.05959426512651
 6  9.51310882718272 -1.13355216991699  1.30345471427143
 6  10.85003733373337  0.47465231943194  0.07763260166017
 6  12.24675994649465 -0.01168986178618  0.28035634683468
 6  13.16450799339934  0.90901817651765  0.61171406980698
 6  14.59430576577658  0.45560883898390  0.86993165526553
 6  14.81319630773077 -0.10376265676568  2.24851477547755
 6  15.69549917831783  1.34830973297330  0.48357156245625
 6  17.13957343544354  0.81089631403140  0.14420754685469
 6  18.07122667006701  1.83772096329633 -0.34790493729373
 6  19.43681588268827  1.26939543434343 -0.41413149684969
 6  19.68277807910791  0.25076050635063 -1.53179897109711
 6  20.52603977287729  2.41993341134113 -0.39709480538054
 1 -3.63290392869287  3.56617786878688  1.32170157185719
 1 -9.58261224372437  3.92538162326233 -0.46693032693269
 1 -10.16380887248725 -2.27419781908191 -1.07667049294930
 1 -2.29326184298430 -1.04722234003400  1.85404545284528
 1 -1.83854319291929  1.27044752095210  0.33984043744374
 1 -1.10674205790579  1.20649896429643  2.93734444554455
 1 -2.30012818671867  2.57760633703370  2.68133425122512
 1 -2.54486681918192  0.88758664396440  3.17897376647665
 1 -1.67285630593059 -2.04545581858186 -0.64026181298130
 1 -1.50274544354435 -0.44272574547455 -0.95097488828883
 1  0.19436743504350 -0.13008444174417  1.07083294849485
 1  0.08548482868287 -2.16029236303630  0.82018225032503
 1 -3.85930046044604  5.59647747564756  0.26843180088009
 1 -5.00302058265826  6.67030970687069  0.73444035013501
 1 -4.44509553775378  5.94718367936794  2.12187996029603
 1 -9.01238425252525  6.21290639983998  0.64982860706071
 1 -12.06342589618962 -1.13179404690469 -0.76367079427943
 1 -13.27848406340634  0.29753615341534 -1.28546618301830
 1 -13.01920974407441 -0.79180129552955 -2.94594171127113
 1 -11.46127309110911 -0.26714929342934 -3.51345351485149
 1 -11.31504832923292 -1.91530484748475 -2.95946255365537
 1 -9.43572275557556 -4.25835239083908 -1.24651687968797
 1 -7.87861307590759 -5.64606461906191 -1.29267891979198
 1 -9.03954123412341 -5.16617857905791  0.38178278777878
 1 -3.09689927132713 -3.62950667556756 -0.36563487028703
 1  3.01661327672767 -3.35301257505751 -1.56844256135614
 1  2.50841513031303 -1.88909482448245 -2.76458669396940
 1  4.34190151785178 -0.78367111551155 -0.55909230763076
 1  4.51920497749775 -1.44879835233523 -3.87756787178718
 1  6.12610618901890 -1.97640631603160 -3.72578380228023
 1  4.65815964336434 -3.29001161546155 -3.34069825362536
 1  6.57379780168017  0.58041337873787 -2.61484410161016
 1  5.86737184658466  0.45512105990599 -1.23734799819982
 1  7.12658383728373 -1.22907110421042 -0.24704298269827
 1  7.68248364676468 -1.66341513181318 -1.63178265416542
 1  8.67198933033303  0.73932452725272 -1.48678146344634
 1  8.00754925302530  0.65738092629263  0.28365407380738
 1  9.90104255135514 -1.45834327802780 -0.58011516911691
 1  8.53320556485649 -1.90284910061006  1.17216557735774
 1  10.16296236563656 -1.78781266246625  1.60920281168117
 1  9.34658787038704 -0.38027925032503  2.26571787688769
 1  10.94007764556456  1.39606236613661 -0.71466863846385
 1  10.68521826842684  1.29219809540954  1.01021490179018
 1  12.24123166536654 -0.49665210471047  1.12077576087609
 1  12.65152730673067 -0.93081130173017 -0.33309630713071
 1  13.03840871087109  1.60190973597360  0.15939703510351
 1  12.82675472027203  1.62540679197920  1.16099188858886
 1  14.71345277107711 -0.55707322332233  0.18086989578958
 1  15.24606450635064  0.59060945644564  3.23550632363236
 1  14.31844911841184 -1.14158183008301  2.37651514961496
 1  16.04426145924592 -0.25382896599660  2.29917639533953
 1  15.48492962786279  1.77342733613361 -0.48463843854385
 1  15.66823085568557  2.42357189268927  0.90251857505751
 1  17.36361767686769  0.43926709730973  1.16839702640264
 1  16.93641116531653  0.21335950515052 -0.59653103050305
 1  17.90152515961596  2.45206175397540 -1.45612860116012
 1  18.24646464256426  3.03541744864487  0.12136880738074
 1  19.59405196639664  0.63588643484348  0.68052140294029
 1  19.36143446144614  0.36455150475048 -2.30723284848485
 1  20.58518280828083 -0.32268407020702 -1.33626776017602
 1  19.15947867486749 -0.75307302570257 -1.31909998469847
 1  20.17226400500050  3.14902448154815  0.41620237383738
 1  21.82059980028003  2.04951153385339  0.02468975397540
 1  20.66228288118812  2.88146563376338 -1.50060485678568
 1  0.16910128502850 -3.47677042644264  2.58756710471047
 1 -1.31791147214721 -4.96756403010301  3.30496113271327
 1 -1.64403841714171 -3.45940441754175  3.71723587678768
 8 -11.71160953525353  3.70522532173217 -0.67062887658766
 1 -12.81499201070107  2.19284052415241 -1.39533013801380

