%nproc=4
%Mem=4GB
# td=(NStates=1) iop(3/107=0140000000,3/108=0140000000) iop(3/107=0140000000,3/108=0140000000) CAM-B3LYP/6-31G(d,p) 

TD

0 1
12 -5.55158666526653  1.22465734003400  0.24517312251225
 6 -5.02026241344134 -2.12807127042704 -0.44722158895890
 6 -3.39172796189619  1.18920920572057  2.82364773807381
 6 -6.25239403510351  4.56443970817082  0.61823203200320
 6 -7.91923769086909  1.14235508620862 -2.40476815031503
 7 -4.44036829012901 -0.28204639643964  1.09326066486649
 6 -4.33787731523152 -1.67588128972897  0.76988933853385
 6 -3.14470759525953 -2.32015531833183  1.52556692039204
 6 -2.89507267826783 -1.30255314621462  2.58661521762176
 6 -3.54489191659166 -0.04234686238624  2.16818140334033
 6 -3.51723476287629 -1.80074351575158  4.04401710111011
 6 -1.89761495469547 -2.55441285058506  0.68153345884588
 6 -1.00517216071607 -3.56750433103310  1.45702929092909
 6  0.14822992349235 -3.87311115181518  0.61403959865987
 8  0.45753581788179 -3.45629294289429 -0.51152738693869
 8  1.05237208290829 -4.69562918021802  1.30826543384338
 7 -4.81723253955396  2.56023540044004  1.47582781448145
 6 -4.04873696349635  2.42176959865987  2.45078568186819
 6 -3.66355585928593  3.71174967716772  3.18270882708271
 6 -4.48359891259126  4.63796532483248  2.61404067536754
 6 -5.23226933113311  3.92714080928093  1.52107820012001
 6 -2.81471683478348  3.89124650045005  4.38107229662966
 6 -4.66812334293429  6.04362178267827  2.92453195799580
 8 -4.08903895189519  6.61156904490449  3.89777367726773
 7 -6.82313611351135  2.65884578037804 -0.77751940824082
 6 -6.88679139393939  3.95876549374937 -0.43092478117812
 6 -7.87096228262826  4.56270299509951 -1.21666577607761
 6 -8.29659911321132  3.65285221512151 -2.14875381978198
 6 -7.69441833233323  2.37873388218822 -1.78491443794379
 6 -8.22337532843284  6.03117302670267 -1.17691720052005
 6 -9.27947231053105  3.80753115131513 -3.25765039783978
 6 -8.61518297199720  3.94636278247825 -4.60392679667967
 7 -6.31459987898790 -0.02674769246925 -1.15003009500950
 6 -7.32783231283128 -0.08226429502950 -2.12320653135314
 6 -7.64249175637564 -1.33886559015902 -2.49889241184118
 6 -6.70142969176918 -2.17459703150315 -2.02208837453745
 6 -5.97229564496450 -1.36200976607661 -1.10190632103210
 6 -8.58258371617162 -1.67810793679368 -3.67464436063606
 6 -6.16293996109611 -3.45687127102710 -2.05034858995900
 8 -6.63514791029103 -4.47997569596960 -2.63424969006901
 6 -5.03078164026403 -3.51534958755876 -0.91863418321832
 6 -5.24147162456246 -4.55885132623262  0.05085875767577
 8 -5.64507027862786 -4.47296630473047  1.20567693109311
 8 -4.82566226442644 -5.81539273567357 -0.39163230783078
 6 -5.21148871307131 -6.87450930423042  0.46481831163116
 6  2.21827280048005 -5.11632275247525  0.49179313371337
 6  3.32732726772677 -4.24527468836884  0.98642654245425
 6  3.97105649584958 -3.32660553065307  0.21257489248925
 6  3.66297063596360 -3.33896883818382 -1.35408491299130
 6  5.16711313711371 -2.36372141974197  0.64632843164316
 6  6.51483635493549 -2.71709463466347 -0.04680321292129
 6  7.50135545914591 -1.93888324382438  0.63612930343034
 6  8.95660648194819 -1.99575440904090 -0.08969675217522
 6  9.54216059775978 -3.42853349374937 -0.02875633333333
 6  10.02462304140414 -1.03722395979598  0.51470398589859
 6  11.31194849724973 -0.87187679457946 -0.28901766796680
 6  12.14574226282628  0.25899052655266  0.27219406700670
 6  13.50830328612861  0.44015888578858 -0.59138390159016
 6  14.45617391639164 -0.63214261686169 -0.35036918781878
 6  14.05958189778978  1.75374154575458 -0.15286454125413
 6  15.28907309770977  2.15919394759476 -0.93372836783678
 6  15.91143372777278  3.64969972277228 -0.66436704990499
 6  17.22527777687769  3.97831567316732 -1.33329726492649
 6  17.13304589428943  3.91499639133913 -2.87925014921492
 6  17.75293469956996  5.31501676697670 -0.80071953085309
 1 -2.88303402620262  1.26596087148715  3.57210767916792
 1 -6.58663664246425  5.42799818021802  0.97252624432443
 1 -8.58815922312231  1.04680498339834 -3.30859633843384
 1 -3.45201626642664 -3.32320763616362  1.89061712251225
 1 -1.76594371827183 -1.16967462906291  2.72957423352335
 1 -2.93297307640764 -2.67915107630763  4.35498904290429
 1 -3.46969776247625 -1.04402430683068  4.69126115591559
 1 -4.38758126982698 -2.12928200910091  3.81340529102910
 1 -2.36591190489049 -2.88343786108611 -0.22963358715872
 1 -1.34979281168117 -1.54483359965997  0.35570369196920
 1 -0.76314174767477 -3.10292158775878  2.39895411411141
 1 -1.41513623522352 -4.44098122932293  1.85323712171217
 1 -1.75915602940294  3.54614413881388  4.05523143284328
 1 -2.72452344244424  4.99672687868787  4.76552280998100
 1 -3.25586858185819  3.22130312781278  5.12352735873587
 1 -5.25144820872087  6.57513170757076  2.31175649704970
 1 -10.07250638413841  3.09033969106911 -3.39838309000900
 1 -9.90208100600060  4.67889173327333 -3.06051634233423
 1 -9.33542334213421  4.07398581258126 -5.49921512381238
 1 -7.95909541894189  4.83709345474548 -4.69239919491949
 1 -7.95629547854785  3.11341069986999 -4.79521944674467
 1 -8.41188877847785 -1.05427597049705 -4.56877787608761
 1 -8.57609859285929 -2.63355676077608 -3.97239987698770
 1 -9.64336441594159 -1.65276209960996 -3.34587149384939
 1 -4.14325168256826 -3.83121794839484 -1.53506679357936
 1  2.36888802180218 -6.23530147314731  0.98084404130413
 1  2.05246598999900 -5.16290326642664 -0.67770121972197
 1  3.52917503980398 -4.02723200500050  1.93611861946195
 1  2.56931191789179 -3.65589121022102 -1.51509405040504
 1  3.84225883918392 -2.30511407070707 -1.79610208070807
 1  4.20271244524452 -4.34698842804280 -1.83569249514952
 1  4.87721776267627 -1.33694011801180  0.34624650815081
 1  5.23574210151015 -2.28882051445144  1.75235011531153
 1  6.94618214491449 -3.83769696179618  0.15798368236824
 1  6.33400356075607 -2.74666227522752 -1.02921351685168
 1  7.05122405370537 -0.89194251935194  0.63837108260826
 1  7.57532963586359 -1.97891447454745  1.77642202750275
 1  9.10371448074807 -1.58559683488349 -1.11987532563256
 1  8.66244076277628 -4.01024979637964 -0.44217801020102
 1  10.43258259905991 -3.60541474357436 -0.54264437793779
 1  9.54373343474347 -3.72103319481948  0.93664410711071
 1  9.51490064066407  0.05403112931293  0.58197356115612
 1  10.29762986048605 -1.17539407330733  1.52110165016502
 1  11.99584472577258 -1.83253328522852 -0.17694206740674
 1  11.15703178987899 -0.79253215811581 -1.29848118171817
 1  11.60460149364937  1.18559298849885  0.39679012381238
 1  12.31562638593859 -0.03924273287329  1.27925620582058
 1  13.08551535223522  0.48691312361236 -1.64467670637064
 1  15.08504784308431 -0.60313852655266  0.62175785578558
 1  14.08737430843084 -1.61963097939794 -0.49896621812181
 1  15.33569455785579 -0.58402160036004 -1.05367225972597
 1  13.38712690689069  2.60342496159616 -0.39804159185919
 1  14.30908760906091  1.41464175337534  0.87222443634363
 1  16.31060271607161  1.54666327902790 -0.95987247794779
 1  14.96416199959996  2.09163307610761 -1.93542492219222
 1  15.21864326892689  4.44881025902590 -0.73955595369537
 1  16.01502427252725  3.64811145254525  0.46300620102010
 1  17.76434011541154  3.13909540074007 -1.07399647924792
 1  16.46479720012001  4.67387391629163 -3.22457481728173
 1  18.07600352385239  4.25767528082808 -3.18228283338334
 1  16.84403460366037  3.00158122812281 -3.35439347394740
 1  17.85016106330633  5.25679689718972  0.32858452265227
 1  18.83469099139914  5.55404955715572 -1.07344425882588
 1  16.99337088798880  5.98089759285929 -1.21097515881588
 1 -5.01304660606061 -7.66197563066307 -0.27238077577758
 1 -6.31513594389439 -6.76411349794980  0.67409091659166
 1 -4.67443561216122 -6.72193376897690  1.37115157175718
 8 -7.82070966256626  6.76693319411941 -0.31070885488549
 1 -9.09372766986699  6.27233287818782 -1.93048873167317

