%nproc=4
%Mem=4GB
# td=(NStates=1) iop(3/107=0140000000,3/108=0140000000) iop(3/107=0140000000,3/108=0140000000) CAM-B3LYP/6-31G(d,p) 

TD

0 1
12 -5.64723623022302  1.23346822112211  0.10134874007401
 6 -4.99351973917392 -2.06725518881888 -0.44787165396540
 6 -3.37218600770077  1.18307859265927  2.71882725602560
 6 -6.18987778347835  4.53244650885089  0.65863607240724
 6 -7.98173394049405  1.21866271697170 -2.35974364786479
 7 -4.46134038733873 -0.27727591939194  1.09383072187219
 6 -4.31803533103310 -1.55481918351835  0.62921527112711
 6 -3.19907303180318 -2.26708001080108  1.43036740044004
 6 -2.96663983498350 -1.23212610351035  2.56583313941394
 6 -3.61711913931393 -0.02825545324532  2.13590817601760
 6 -3.34900794019402 -1.81750519191919  3.93850655005501
 6 -1.93332852605261 -2.66536394569457  0.62111741724172
 6 -0.98352999649965 -3.44878245884588  1.52413600160016
 6  0.35165026552655 -3.88948278897890  0.70525872057206
 8  0.51565162946295 -3.56984429802980 -0.42613884808481
 8  1.17509435513551 -4.82132174947495  1.26512111941194
 7 -4.90763157945795  2.62400177707771  1.46495672737274
 6 -4.02489457925793  2.48492591429143  2.50806140944094
 6 -3.69172867656766  3.65628413061306  3.14680523672367
 6 -4.56502705540554  4.55677720602060  2.65588485978598
 6 -5.27666377057706  3.93771186638664  1.51244733703370
 6 -2.80929629272927  3.62280965676568  4.37273146254625
 6 -4.63125965656566  6.01879930043004  3.01600110491049
 8 -3.91012106010601  6.57385527352735  3.85703960386039
 7 -6.91859565946595  2.61202109790979 -0.75607726402640
 6 -6.89996271107111  3.98158777597760 -0.43334502320232
 6 -7.93841902830283  4.59905663046305 -1.21519562906291
 6 -8.47886734003400  3.61189811971197 -2.11729067346735
 6 -7.83440233073307  2.42169817861786 -1.74740068656866
 6 -8.24292728362836  5.97487739713971 -1.18240774957496
 6 -9.45243960726073  3.75732613081308 -3.22463709650965
 6 -8.74030548424843  4.01409955615562 -4.55983238723872
 7 -6.40090850985098 -0.18766378407841 -1.18185327732773
 6 -7.40950047964796 -0.04679074767477 -2.10418462916292
 6 -7.59247675487549 -1.33442514611461 -2.76391891449145
 6 -6.65896544534453 -2.18230780258026 -2.01126729242924
 6 -6.02975139053905 -1.45182874797480 -1.13376950735073
 6 -8.53628908670867 -1.67719784578458 -3.77324422062206
 6 -6.20593426052605 -3.54037962186219 -2.02999655475548
 8 -6.57914230973097 -4.54359205760576 -2.67411367646765
 6 -5.03518208030803 -3.57444549714972 -0.93791611141114
 6 -5.37104458185819 -4.51932737383738  0.09236290809081
 8 -5.70919669126913 -4.30140914901490  1.25249161256126
 8 -5.05939563776378 -5.85186638303830 -0.33917706230623
 6 -5.34536210041004 -6.91900375367537  0.49784161396140
 6  2.34336530973097 -5.10188130833083  0.71949590399040
 6  3.48353288828883 -4.20337049794979  1.07753565336534
 6  3.97647703790379 -3.34339720982098  0.22172580758076
 6  3.47481182008201 -2.99290423172317 -1.16523602810281
 6  5.14592101790179 -2.39244429202920  0.82268606740674
 6  6.38971384268427 -2.64748767396740 -0.05087361996200
 6  7.61921724532453 -1.76490584608461  0.58229391989199
 6  8.95793661496150 -1.90363519711971 -0.04831261376138
 6  9.47342372407241 -3.46204684508451 -0.03951740944094
 6  9.92469304840484 -0.95644588198820  0.59040155565557
 6  11.28994629702970 -0.83149275617562 -0.28126689288929
 6  12.26165385398540  0.21774640214021  0.26063291089109
 6  13.55907836363636  0.50944581448145 -0.58490325352535
 6  14.47464576357636 -0.69206860946095 -0.60357450835083
 6  14.30845678527853  1.77474364596460 -0.18630788558856
 6  15.47244143454345  2.16131415961596 -0.99180417541754
 6  16.05281786618662  3.50748550135014 -0.63616422962296
 6  17.38332358145815  3.93414125572557 -1.31412534773477
 6  17.24508709840984  3.98289318101810 -2.86503872807281
 6  17.89133853995400  5.20705597089709 -0.79152861176118
 1 -2.77319304210421  1.19141341674167  3.57320778917892
 1 -6.42499047784778  5.56293167356736  0.81798078977898
 1 -8.78412882008201  1.20379068196820 -3.15972145094509
 1 -3.57234829962996 -3.01642695809581  1.97755581638164
 1 -1.89325644954495 -0.94602226382638  2.71148242434243
 1 -2.57415719481948 -2.66747990919092  4.15838938293829
 1 -2.99393018571857 -1.11913181758176  4.77737976777678
 1 -4.52759527122712 -2.08685776667667  4.25483943444344
 1 -2.17182249594960 -3.41577109440944 -0.19081970577058
 1 -1.56133396579658 -1.62363147944794  0.52633075467547
 1 -0.56011144464446 -2.72057335293529  2.20399461816182
 1 -1.16756147774777 -4.41546867806781  2.07528932693269
 1 -1.71279139293929  3.84956448084808  4.15040094979498
 1 -3.05861685178518  4.63195040104010  4.96783304100410
 1 -2.73542653765377  2.71222221972197  5.00595560156016
 1 -5.47313037693769  6.41626582098210  2.61870719211921
 1 -10.06311544504450  2.87463812091209 -3.27499075077508
 1 -10.08428922682268  4.58180202430243 -3.03091338203820
 1 -9.43271307110711  4.13297171117112 -5.46454165646565
 1 -7.95987549694969  4.87306705210521 -4.47175713071307
 1 -7.99543939293929  3.11733109190919 -4.67422734753475
 1 -8.32872046164617 -1.28064860776078 -4.69876087438744
 1 -8.42153313631363 -2.72676608170817 -3.92176481348135
 1 -9.56991707120712 -1.56878370177018 -3.44474138083808
 1 -4.14067142454245 -3.65089991659166 -1.65010829772977
 1  2.40191132413241 -6.12646058905891  0.97519347624762
 1  2.14060480388039 -5.34598157425742 -0.38349179877988
 1  3.64344646694669 -4.25170445224523  2.09108411601160
 1  2.41399638633863 -3.23219884098410 -1.39896243724372
 1  3.54869948324833 -2.01674523382338 -1.34607707820782
 1  4.24108628262826 -3.50508423762376 -1.96654558045805
 1  4.77464750565056 -1.41464788878888  0.79287117061706
 1  5.47078560586059 -2.93052468486849  1.79953483378338
 1  6.72034956165617 -3.78150134223422 -0.26777889388939
 1  6.41325148554855 -2.18874648364836 -1.09025962146215
 1  7.42569150045005 -0.60300362546255  0.71172841834183
 1  7.61162326522652 -2.11877846094609  1.77599198449845
 1  8.89639374867487 -1.49911818701870 -1.15119845794579
 1  8.65616013471347 -3.98018679007901 -0.47138093049305
 1  10.53410275107511 -3.56087028912891 -0.59057917141714
 1  9.69774883628363 -3.93569466096610  1.02946338903890
 1  9.50883003360336  0.01378710491049  0.50157552135213
 1  10.27327742524252 -1.19465599949995  1.55715525552555
 1  11.82583772507251 -1.85229526142614 -0.12336670987099
 1  11.18339442614261 -0.55117802270227 -1.53072440604060
 1  11.68534956845685  1.28182261146115  0.18617906270627
 1  12.47336215951595  0.15578677007701  1.42439071927193
 1  13.13217001770177  0.69606403870387 -1.50188242694269
 1  14.89989932823282 -0.98783699639964  0.58233391339134
 1  14.06771234223422 -1.73078209450945 -0.56724304580458
 1  15.41583257165717 -0.68331152935294 -1.16007289978998
 1  13.67773596779678  2.74212883198320 -0.08302008970897
 1  14.61694839513951  1.71429171837184  1.01601881578158
 1  16.20042169796980  1.40183879657966 -1.00350684138414
 1  15.37689327272727  2.28133204600460 -2.06016739643964
 1  15.45201660626063  4.32808818681868 -0.83152515061506
 1  16.56751952205221  3.64193083448345  0.51150105050505
 1  18.04345802720272  3.04831632283228 -1.23729280888089
 1  16.53588430883088  4.99862639153915 -3.11275363516352
 1  18.17807373087309  4.30338985228523 -3.63989859495950
 1  16.89081928212821  3.05854692469247 -3.30421845644564
 1  18.20154620182018  5.15306652415242  0.31556322052205
 1  18.67856537883788  5.48175232743274 -1.38527544194419
 1  16.98519006990699  5.92322182528253 -0.91354541584158
 1 -5.43114841624162 -7.88729816291629 -0.24687822552255
 1 -6.37631206150615 -6.52972005860586  0.73436694419442
 1 -4.67933610221022 -7.12056363196320  1.46988144474447
 8 -7.76842443404340  6.78013451425143 -0.33124090809081
 1 -9.04029232633263  6.26188183308331 -1.83358904170417

