%nproc=4
%Mem=4GB
# td=(NStates=1) iop(3/107=0140000000,3/108=0140000000) iop(3/107=0140000000,3/108=0140000000) CAM-B3LYP/6-31G(d,p) 

TD

0 1
12 -5.64074558115812  1.25796067036704  0.25120372557256
 6 -5.06635702290229 -2.06230469376938 -0.30285715251525
 6 -3.39953874297430  1.21563184798480  2.94188956225623
 6 -6.19954875057506  4.52003526772677  0.67816802560256
 6 -8.10681644874487  1.18934978567857 -2.33344101760176
 7 -4.28699295259526 -0.20617880968097  1.08494983378338
 6 -4.21225475297530 -1.61337503910391  0.75900825042504
 6 -3.22350547504750 -2.37808111091109  1.53274763846385
 6 -2.98014118511851 -1.36721961286129  2.69691624772477
 6 -3.61259868726873 -0.01869449714972  2.19547413261326
 6 -3.56676971637164 -1.80667410881088  3.98962166156616
 6 -1.94064925812581 -2.62655006430643  0.73834914041404
 6 -0.95702734623462 -3.46948452905291  1.56869045704570
 6  0.24328942944294 -3.85101894259426  0.62255044974497
 8  0.43966403070307 -3.27307462106211 -0.38902513671367
 8  0.99437628332833 -4.82437205450545  1.27930253755376
 7 -4.89138995529553  2.56787616451645  1.48854908660866
 6 -3.95354744454445  2.39780720242024  2.53669427272727
 6 -3.63965346904690  3.68575707790779  3.17252780898090
 6 -4.45923647634763  4.63634516281628  2.56024529582958
 6 -5.28119422362236  3.89946804200420  1.51114720702070
 6 -2.72425778887889  3.90422779857986  4.30459464886489
 6 -4.56905343594359  6.04307172767277  2.89347885268527
 8 -3.92950299829983  6.69363725172517  3.71890579047905
 7 -6.95504930483048  2.61144103990399 -0.64797645394539
 6 -6.89263197799780  3.91170078727873 -0.38856054475448
 6 -7.96784197059706  4.63840056485648 -1.16886099559956
 6 -8.46069552285229  3.64972190209021 -2.11032997739774
 6 -7.86540543104310  2.39582559135914 -1.68685463196320
 6 -8.41571456235624  5.96047595699570 -1.10478998779878
 6 -9.49889425272527  3.75755615381538 -3.25954058685869
 6 -8.97822927662766  3.94956310251025 -4.81782818681868
 7 -6.44074249324933 -0.05453047074707 -1.04206929892989
 6 -7.29580911051105 -0.07302337093709 -2.12450666136614
 6 -7.55016252345235 -1.31310301390139 -2.71520404300430
 6 -6.71823137193719 -2.22868244004400 -2.01115728142814
 6 -5.98200661606161 -1.34098766386639 -1.12606873727373
 6 -8.46002145994599 -1.64926505250525 -3.78882577877788
 6 -6.18950261736174 -3.49047463136314 -2.03369692479248
 8 -6.52216661216122 -4.50952865126513 -2.67009327442744
 6 -5.00461902400240 -3.47413546614661 -0.94034635443544
 6 -5.29505698309831 -4.61525696679668  0.05411908370837
 8 -5.73408918051805 -4.52210121822182  1.16344270767077
 8 -5.01747144534454 -5.83235443184318 -0.51120426502650
 6 -5.32395996019602 -6.98332018531853  0.36043787358736
 6  2.33622459565957 -5.10047116731673  0.49085303970397
 6  3.35409994499450 -4.08081824272427  0.87480538033803
 6  4.13570296049605 -3.26968983908391  0.12188582358236
 6  3.77211155005501 -3.27997293859386 -1.40012951745175
 6  5.13409983578358 -2.34114916251625  0.57897169596960
 6  6.52352722402240 -2.62113503870387 -0.03054158675868
 6  7.66365168876888 -1.87729708520852  0.57142283278328
 6  9.03643446474647 -1.99053388698870 -0.05874365686569
 6  9.57981436313631 -3.41811245164516  0.15201174347435
 6  10.04054463356336 -0.87713795119512  0.46912942844284
 6  11.40216751915191 -0.89778938583858 -0.25123388958896
 6  12.26437412601260  0.26742136963696  0.11789863746375
 6  13.63090554635463  0.41537640754075 -0.59950471367137
 6  14.51919021802180 -0.78306770937094 -0.23115726662666
 6  14.21670761036104  1.71031720332033 -0.24942419721972
 6  15.58163235363536  2.07506553475348 -0.84680967596760
 6  16.06884946934693  3.44703945674567 -0.47837845104510
 6  17.31092634173417  3.92213005460546 -1.38683261846185
 6  17.19552214191419  4.05462035373537 -2.78410063426343
 6  17.81507091319132  5.25888115341534 -0.87954741364136
 1 -2.53836955975598  1.34573884928493  3.75399586798680
 1 -6.43268124692469  5.56639201960196  0.66039503120312
 1 -8.86724713191319  1.26045634853485 -3.11349682848285
 1 -3.71056212101210 -3.21827714311431  2.03598165896590
 1 -1.78249537343734 -0.90452811441144  2.62862413851385
 1 -3.20994077317732 -2.59917307850785  4.26342988698870
 1 -3.56721751445145 -1.10618052245224  4.86633866366637
 1 -4.71415392709271 -1.92585166606661  3.90396434693469
 1 -2.09150446414642 -2.97468698599860 -0.20052067586759
 1 -1.62185001740174 -1.63751286758676  0.22764088568857
 1 -0.67738317181718 -2.88274957055706  2.44818903760376
 1 -1.25497021862186 -4.35271240244024  2.10864266226623
 1 -1.72018213201320  3.32987251165117  3.95289119881988
 1 -2.70982197229723  5.06798400440044  4.23032929062906
 1 -3.31239423442344  3.56328732623262  5.38914392039204
 1 -5.10585364926493  6.70856505090509  2.03685900730073
 1 -10.19945907940794  2.81875253235323 -3.20389364106411
 1 -10.30586138403840  4.54776862096210 -3.04055434613461
 1 -9.94538433823382  3.98928734273427 -5.35927112941294
 1 -8.49213872327233  4.93232297769777 -4.99185914091409
 1 -8.46650649964996  3.11667102590259 -5.02869279407941
 1 -8.45824341394139 -1.23183372627263 -4.78243924222422
 1 -8.43593457645765 -2.66065947104710 -3.97922055905590
 1 -9.68528860836084 -1.68960578397840 -3.57714462116212
 1 -4.10143750115011 -3.80347517411741 -1.63376666356636
 1  2.61215234823482 -6.11695963896390  0.73133909080908
 1  1.97545828922892 -5.04722169826983 -0.54116756635664
 1  3.44002612491249 -4.02343162496250  2.05165017261726
 1  2.74050903760376 -3.63850947204720 -1.53686622762276
 1  3.67528214151415 -2.06559011831183 -1.65798826932693
 1  4.53078525252525 -3.68730245944594 -2.03094202010201
 1  4.77327736863686 -1.46157258125813  0.22323420692069
 1  5.24102262956296 -2.53367499989999  1.68309318961896
 1  6.96576410311031 -3.66301949404941  0.21451933593359
 1  6.33292345274527 -2.45022263126313 -1.26450704620462
 1  7.46110504180418 -0.85472879797980  0.48292553805380
 1  7.77569967286729 -2.25321190429043  1.49520390569057
 1  8.98684279357936 -1.84860313551355 -1.19585292339234
 1  8.93952847154715 -4.10665943734373 -0.31490528292829
 1  10.58606794759476 -3.43257745984599 -0.20357047054705
 1  9.71698075947595 -3.69968105960596  1.18422886558656
 1  9.49826897749775  0.05650137633763  0.44770013381338
 1  10.33825392289229 -0.98367490139014  1.45149468946895
 1  11.90651579287929 -1.84874490639064 -0.19833420662066
 1  11.12406849354936 -0.94340724562456 -1.22654398799880
 1  11.79881091459146  1.12620704990499  0.01575202000200
 1  12.54387921122112  0.34628581998200  1.06045432563256
 1  13.46342314301430  0.34992942524252 -1.64754699339934
 1  14.86246558485848 -0.85714392709271  0.81877755775578
 1  14.02994856585659 -1.69778879517952 -0.36727304880488
 1  15.51468245664567 -0.75341854005401 -0.58996588908891
 1  13.46901509570957  2.44807942704270 -0.55498728642864
 1  14.40102680298030  1.84716500570057  0.88256547044704
 1  16.35528718451845  1.36513512621262 -0.53857034773477
 1  15.38422400580058  1.81543545634563 -1.89976135583558
 1  15.38359976457646  4.13198857685769 -0.85935793389339
 1  16.26687945804581  3.52339898129813  0.59535943634363
 1  18.16216989838984  3.07663915511551 -1.17191627122712
 1  16.21295201560156  4.68593512241224 -3.08163052285228
 1  17.98012393589359  4.44086359965997 -3.40390499559956
 1  16.97850805100510  3.13578464846485 -3.50383841844184
 1  18.07194324152415  5.27663888138814  0.11482314651465
 1  18.83919144144415  5.37504165636564 -1.44750166456646
 1  17.01392294319432  6.04284378747875 -1.11393545484548
 1 -5.13124842624262 -7.93212264536454 -0.02131566926693
 1 -6.31967639793979 -6.93782086868687  0.62961646914692
 1 -4.64562273087309 -6.58603017861786  1.25198965556556
 8 -7.93427101870187  6.70882738353835 -0.28725650965097
 1 -9.27287558465847  6.34004964986499 -1.71626730953095

