%nproc=4
%Mem=4GB
# td=(NStates=1) iop(3/107=0140000000,3/108=0140000000) iop(3/107=0140000000,3/108=0140000000) CAM-B3LYP/6-31G(d,p) 

TD

0 1
12 -5.70285179177918  1.06976185048505  0.18684728992899
 6 -5.13326371357136 -2.25122358565857 -0.26961382818282
 6 -3.49932872197220  1.10407069186919  2.84886025932593
 6 -6.21824061976198  4.61035429962996  0.71932214101410
 6 -7.95434120122012  1.21991284198420 -2.37534520802080
 7 -4.25232948624862 -0.23674186598660  1.00163150195020
 6 -4.24100762826283 -1.62198590019002  0.63635598519852
 6 -3.26025915041504 -2.41336463926393  1.53177754145415
 6 -2.78743191419142 -1.23834672557256  2.57612416851685
 6 -3.46719414681468 -0.06376900460046  2.10939552475248
 6 -3.30525356475648 -1.77362080348035  3.98361106050605
 6 -2.03819901310131 -2.79958736803680  0.60982628812881
 6 -0.95966761026103 -3.57263484408441  1.47979156715672
 6  0.29141424192419 -3.85566940764076  0.68036623132313
 8  0.46006607090709 -3.42696000960096 -0.47478371257126
 8  1.11982882858286 -4.73278289558956  1.26677128442844
 7 -5.04683549984999  2.57986736363636  1.53051328302830
 6 -4.12770486028603  2.40374779647965  2.54500510381038
 6 -3.79940944464446  3.52798130033003  3.24332488868887
 6 -4.67475802850285  4.56735826412641  2.63000227152715
 6 -5.37212331653165  3.95871396659666  1.62092818511851
 6 -3.07100246334633  3.68181555735574  4.49158334773477
 6 -4.73932046264626  5.97242466296630  2.96047555235524
 8 -4.10734078207821  6.64009189718972  3.80913481338134
 7 -6.91132493239324  2.70546044184418 -0.65715737203720
 6 -6.94491720652065  4.04677429462946 -0.37269895859586
 6 -7.77453263966397  4.63313003780378 -1.27463157265727
 6 -8.40116957025703  3.60089701960196 -2.16088503290329
 6 -7.74806369686969  2.47581359015902 -1.74465041154115
 6 -8.17288027892789  6.11831174057406 -1.26512602140214
 6 -9.34066843014302  3.82507290549055 -3.28090272307231
 6 -8.77935938963896  3.89787793399340 -4.77321372537254
 7 -6.41350976997700 -0.07382239993999 -1.00485557755776
 6 -7.25309483908391  0.05588952035204 -2.09007321802180
 6 -7.43347085428543 -1.22446415001500 -2.79209173177318
 6 -6.66793634243424 -2.19684925672567 -2.07740390609061
 6 -6.08611702710271 -1.47257082218222 -1.04467059745975
 6 -8.55798125592559 -1.55079520552055 -3.84879177537754
 6 -6.31170483758376 -3.52726831073107 -1.97946150125012
 8 -6.62160655615562 -4.56410410881088 -2.56073233833383
 6 -5.16845540764076 -3.61960001260126 -0.84346666646665
 6 -5.47945542294229 -4.67989343044304  0.06347001880188
 8 -5.99925569716972 -4.49067807590759  1.20523688708871
 8 -5.03144284248425 -5.86218741514151 -0.26972011661166
 6 -5.36979454365437 -6.95065691899190  0.66577840764076
 6  2.40216118931893 -5.09741086128613  0.68978293269327
 6  3.46990152515252 -3.99774993589359  1.02587048684868
 6  4.06857624782478 -3.26565943604360  0.14044767976798
 6  3.78566290519052 -2.96320126142614 -1.33737324182418
 6  5.20036646244624 -2.28862390999100  0.62731653045305
 6  6.52326719801980 -2.47227015221522 -0.11881041364136
 6  7.68836416001600 -1.59771912741274  0.48485417591759
 6  9.04136495779578 -1.96410124372437 -0.14840262276228
 6  9.52700908260826 -3.46213685408541  0.05724226652665
 6  10.02558313741374 -1.02216245364536  0.39108162366237
 6  11.42579988238824 -0.93226283318332 -0.42388115431543
 6  12.28056574517452  0.29126375387539  0.05819266686669
 6  13.57684013981398  0.39482435233523 -0.62276703990399
 6  14.42528082708271 -0.93060246284628 -0.52576672757276
 6  14.27315325492549  1.75776194779478 -0.19262851765177
 6  15.61878606900690  2.12890091829183 -0.88567356235624
 6  16.12063464786479  3.58384313711371 -0.51358197139714
 6  17.37268251735174  3.92061990359036 -1.25128906410641
 6  17.18348093779378  4.02370726242624 -2.77510973517352
 6  18.00139954605460  5.25600086538654 -0.75527498639864
 1 -3.00095581838184  1.11794607000700  3.92142261066107
 1 -6.34108208700870  5.62199758015802  0.87168616031603
 1 -8.55119552675268  0.92889319221922 -3.26639211801180
 1 -3.79324038883888 -3.20855617101710  1.99941800260026
 1 -1.71639876377638 -1.05680334193419  2.67970924702470
 1 -2.56559633873387 -2.52925608680868  4.26115965996600
 1 -3.24237503020302 -0.84459436383638  4.76924895469547
 1 -4.32678519021902 -2.29345842674267  4.05274922542254
 1 -2.28868418211821 -3.48423794109411 -0.16748737253725
 1 -1.54999283168317 -1.78610772707271  0.16974509610961
 1 -0.75000043354335 -3.26085738133813  2.39941416011601
 1 -1.38033275487549 -4.51587871907191  1.81080287828783
 1 -1.93780389418942  3.68583810821082  4.43416932663266
 1 -3.17147813791379  4.68172537853785  4.91806806450645
 1 -3.42351534653465  3.10548154565456  5.50457546354635
 1 -5.52766583048305  6.40601479587959  2.50716603800380
 1 -9.97273640714071  2.80503116021602 -3.23712696439644
 1 -10.13347414531453  4.62448629272927 -3.03740403110311
 1 -9.45070487028703  3.87745615961596 -5.64802000430043
 1 -8.23288279767977  4.77290703610361 -4.74826478147815
 1 -8.16282613161316  3.02427178597860 -4.85192511731173
 1 -8.25168275787579 -1.03802434533453 -4.79129012731273
 1 -8.55432641564157 -2.66461986708671 -4.04072670967097
 1 -9.53470354985499 -1.17655447884788 -3.47539444614461
 1 -4.19806716411641 -3.73244807140714 -1.22796608350835
 1  2.66905803880388 -6.09090703370337  1.47583354025403
 1  2.15261600500050 -5.42165914201420 -0.33099654925492
 1  3.85693781608161 -3.98832811461146  1.90482549014902
 1  2.82270725742574 -3.51844746584658 -1.79345188618862
 1  3.81564617791779 -1.72460601990199 -1.54129660016002
 1  4.65245741974197 -3.46755048424842 -1.90490941684168
 1  5.11021106200620 -1.11631805580558  0.60837272077208
 1  5.27944647194720 -2.26900853325332  1.75654053435344
 1  7.00091761846185 -3.53027621972197 -0.16005812181218
 1  6.37809797019702 -2.23631124012401 -1.17707830333033
 1  7.43912284358436 -0.46186951205120  0.27464470997100
 1  7.64269637253725 -1.69952653575358  1.41192557785779
 1  9.08726283558356 -1.97512578777878 -1.09155249334934
 1  8.82874739343934 -4.07800657205721 -0.38417220962096
 1  10.41734107490749 -3.63693789588959 -0.46133624712471
 1  9.75663472487249 -3.70785187668767  1.08484892759276
 1  9.82840199079908  0.04618034423442  0.14799016281628
 1  10.19439953745375 -1.12793932783278  1.59056859685969
 1  11.95828096939694 -1.81769180108011 -0.32317669086909
 1  11.30230631733173 -0.70094299919992 -1.56420775437544
 1  11.65079611311131  1.25734016321632 -0.12596215141514
 1  12.51556637993799  0.16453764516452  1.10631891209121
 1  13.45279207990799  0.59944437673767 -1.72161440014001
 1  14.59809914821482 -1.31158937163716  0.42146782678268
 1  14.09720529152915 -1.87357637393739 -0.97781410291029
 1  15.46320730913091 -0.76401960016002 -0.98090498299830
 1  13.59276747094709  2.67864248334833 -0.34676646434643
 1  14.57289398969897  1.84360464966497  0.89541675557556
 1  16.33780543634363  1.36238485118512 -0.57873436413641
 1  15.28234381778178  2.15872978577858 -2.05148652835283
 1  15.21573297789779  4.36805218321832 -0.54424642274227
 1  16.47005977607761  3.43065970737074  0.53423332373237
 1  18.07842152355235  3.02205369656966 -1.09679875947595
 1  16.73365408580858  4.87237376627663 -3.10990335013501
 1  18.10395631913191  4.13151266456646 -3.45391999709971
 1  16.59807000720072  3.19680075007501 -3.28723675827583
 1  18.01033708090809  5.04927614511451  0.38522018621862
 1  19.08762628492849  5.40985513771377 -0.92198911331133
 1  17.46145769666967  6.00302980608061 -0.89315337663766
 1 -4.84669997139714 -7.87132656575658  0.20028649094909
 1 -6.39604403470347 -7.06617370397040  0.91407491499150
 1 -5.04368253685369 -6.54891646724673  1.56604106070607
 8 -7.70849844144414  6.91135763656366 -0.51239902390239
 1 -8.92774107120712  6.37498314321432 -2.04197988078808

