%nproc=4
%Mem=4GB
# td=(NStates=1) iop(3/107=0140000000,3/108=0140000000) iop(3/107=0140000000,3/108=0140000000) CAM-B3LYP/6-31G(d,p) 

TD

0 1
12 -5.63909541614161  1.27073194749475  0.17580618581858
 6 -5.04395478267827 -2.24405286858686 -0.30873774057406
 6 -3.35431422052205  1.23297358215822  2.71769714301430
 6 -6.21542033773377  4.56863012721272  0.64610481928193
 6 -7.98833460056006  1.20002085278528 -2.45861353485349
 7 -4.47495174847485 -0.33127131893189  1.04614595339534
 6 -4.24018754625463 -1.60512421402140  0.69669201880188
 6 -3.27488061256126 -2.36125942874287  1.43778814251425
 6 -2.92076524752475 -1.34463735463546  2.58867542364236
 6 -3.61183861126113 -0.02280490819082  2.11134571977198
 6 -3.50852389178918 -1.71812525392539  4.06782948234823
 6 -2.00679587278728 -2.69801721102110  0.60980628612861
 6 -0.99414105760576 -3.58177575817582  1.40216380438044
 6  0.26998209870987 -3.92168600930093  0.64211240594059
 8  0.50911097539754 -3.49077639123912 -0.43276951115112
 8  1.10949779547955 -4.61762137943794  1.35523013031303
 7 -5.05077589388939  2.65707508440844  1.52256248794879
 6 -4.01857394719472  2.51010843254325  2.39175977927793
 6 -3.75485498919892  3.64074257645765  3.19821037723772
 6 -4.60403095579558  4.63276480478048  2.57813708500850
 6 -5.33466957115712  3.96462455765577  1.51263735603560
 6 -2.85698106120612  3.82010938673867  4.32572676207621
 6 -4.60761729232923  6.00363778427843  2.86451595639564
 8 -3.93346339433943  6.60907879587959  3.74981888178818
 7 -6.79164296419642  2.60770066586659 -0.69211086738674
 6 -6.99288200300030  3.89015863306331 -0.32133382208221
 6 -7.95607079347935  4.59772649744975 -1.09684379387939
 6 -8.49092854615462  3.60486741664166 -2.04551349574957
 6 -7.70317920842084  2.39951596039604 -1.68329427592759
 6 -8.36522951385139  5.98165807520752 -0.99086859565957
 6 -9.38044240754076  3.81303170137014 -3.18574320712071
 6 -8.84606606030603  4.07672581878188 -4.62238864286429
 7 -6.40436885588559 -0.15029004670467 -1.06141123312331
 6 -7.35712524212421 -0.07334340294029 -2.12176638733873
 6 -7.53228073527353 -1.32116381998200 -2.68956147874787
 6 -6.70789033783378 -2.23080265206521 -1.97220338603860
 6 -5.97846626202620 -1.42202576767677 -1.08673480388039
 6 -8.50841629942994 -1.67222734873487 -3.82296919311931
 6 -6.25848951605161 -3.58616420032003 -1.97419097419742
 8 -6.63308770427043 -4.60201790019002 -2.57109337443744
 6 -5.00568913101310 -3.59681773437344 -0.94520684048405
 6 -5.30816829422942 -4.68526396749675  0.07202087388739
 8 -5.86994276587659 -4.46432544064406  1.14256061946195
 8 -5.01927162536254 -5.84436563296330 -0.46128927352735
 6 -5.49254681888189 -6.99136098939894  0.41658348814881
 6  2.33364433763376 -4.91100222042204  0.65989994439444
 6  3.49052358735874 -3.97559772067207  1.13440133993399
 6  4.01321071127113 -3.28150102020202  0.10487412241224
 6  3.59733407230723 -3.05545048634864 -1.42453195769577
 6  5.19221564736474 -2.27401244884488  0.48307210601060
 6  6.60186505780578 -2.67306023122312 -0.00662919551955
 6  7.76826214981498 -1.79871922742274  0.47054274477448
 6  9.12995381668167 -2.03749858345835 -0.09010679317932
 6  9.55104148584859 -3.52863350375037  0.28859540184018
 6  10.09217979707971 -0.96731696909691  0.49787230273027
 6  11.41916921932193 -1.03522312921292 -0.30186895309531
 6  12.26674436303630  0.15823045054505  0.09040588818882
 6  13.64636709250925  0.47956282618262 -0.63071783498350
 6  14.56720501950195 -0.72862226482648 -0.39670382128213
 6  14.22371831143114  1.76255242684268 -0.21215046984698
 6  15.50561475187519  2.19419744794479 -0.90621561656166
 6  16.08029061346135  3.50383513631363 -0.48316893009301
 6  17.38894414351435  3.97788563016302 -1.31929586478648
 6  17.17846043574357  3.97530242194219 -2.85500772497250
 6  17.97915732183218  5.28642390769077 -0.82667212611261
 1 -2.54853057585759  1.28530280568057  3.46761723012301
 1 -6.31753973277328  5.75111049144915  0.58713770547055
 1 -8.47196760396040  1.18879918281828 -3.35488096689669
 1 -3.85587665246525 -3.24779009440944  2.01536959775978
 1 -1.73096021992199 -1.03198085968597  2.74340561666167
 1 -2.85009478857886 -2.56100926212621  4.23213675767577
 1 -3.13456424912491 -0.75119502390239  4.55880791059106
 1 -4.71724423612361 -1.79045812671267  4.03946789728973
 1 -2.43511882558256 -3.20423994129413 -0.24445506930693
 1 -1.65325315771577 -1.77426654295430  0.16027414901490
 1 -0.58581401490149 -3.12403369896990  2.37284150285029
 1 -1.58662338393839 -4.34946207740774  1.65864766276628
 1 -1.94405451925193  3.23808333273327  3.93616952665266
 1 -2.79809079917992  4.81625883188319  4.46814307200720
 1 -3.24265726072607  3.30261125862586  5.36092109810981
 1 -5.44739780368037  6.57226142054205  2.35199052045204
 1 -9.95926506000600  3.02499315641564 -3.29744299599960
 1 -10.04202500040004  4.64114795889589 -2.81810210091009
 1 -9.64708450825083  4.05992440644065 -5.27057225952595
 1 -8.16893640304030  5.12313205860586 -4.63223317831783
 1 -8.36794664366436  3.14805416421642 -4.83576350115012
 1 -8.17970556015602 -1.28155869876988 -4.80167116541654
 1 -8.50438142114211 -2.73223662876288 -3.92316495349535
 1 -9.58368844834484 -1.08439526292629 -3.62967987468747
 1 -4.16447380478048 -3.79661448804880 -1.40355364226423
 1  2.39582071507151 -5.91798974197420  0.97615357225723
 1  2.15233597699770 -4.79027600370037 -0.47911136073607
 1  3.83926604890489 -4.02739202100210  2.04835984358436
 1  2.41785677237724 -3.30713633473347 -1.46014855585558
 1  3.77728234153415 -2.03123668296830 -1.79837230773077
 1  4.30636281028103 -3.54756848604861 -2.10300922682268
 1  4.97105714661466 -1.21405782978298  0.12637452095210
 1  5.15698422572257 -2.29521115351535  1.69717459775978
 1  6.86144367106711 -3.79712290439044  0.34350223422342
 1  6.72342250265026 -2.67630523952395 -1.06858745424542
 1  7.62472140344034 -0.67089041414141  0.13636088158816
 1  7.94055615851585 -1.73726030913091  1.56148053335334
 1  9.03404751405141 -1.90527880308031 -1.16416975507551
 1  8.81475599429943 -4.23311208260826 -0.03273706610661
 1  10.41215055585559 -3.61516571867187 -0.26656677017702
 1  9.94760382178218 -3.44146523802380  1.41025146784678
 1  9.70611976257626  0.15572129832983  0.56483184698470
 1  10.34164426192619 -1.19758629252925  1.63218275827583
 1  11.92516765806581 -2.00052008390839 -0.14223859705971
 1  11.32418850555056 -1.09330223512351 -1.36772810641064
 1  11.55235626912691  1.26437086628663  0.22178262306231
 1  12.55479030233023 -0.06958576717672  1.13731201140114
 1  13.53621042174217  0.27959239153915 -1.57562980168017
 1  15.03670300860086 -0.83655186788679  0.55551123112311
 1  14.08154372537254 -1.72447146344634 -0.50952727422742
 1  15.44632562096210 -0.61425462366237 -1.14894178667867
 1  13.55336353055305  2.59416403550355 -0.57845963366337
 1  14.41202790309031  1.72672296149615  0.94044125802580
 1  16.26200785658566  1.41334994769477 -0.62707919861986
 1  15.41820740414041  2.17547145994600 -1.75777715741574
 1  15.20448185278528  4.09564494249425 -0.73405540364036
 1  16.41721449154916  3.59432607400740  0.56608650905091
 1  18.24923860526053  3.15977746894689 -1.12253133273327
 1  16.50705142554255  4.70425695459546 -3.16843920372037
 1  18.06288221172117  4.07330684398440 -3.24466907200720
 1  17.12681288148815  2.79498056805681 -3.19086712131213
 1  18.05424147134713  5.09813103060306  0.15035669986999
 1  19.00147767006701  5.42861701390139 -1.29360627502750
 1  17.30841239213921  6.03372287538754 -0.73826788808881
 1 -5.30016531793179 -7.85414484758476 -0.20325386308631
 1 -6.57727215751575 -7.00739782638264  0.70177368486849
 1 -4.87687585618562 -6.88376995259526  1.44295875247525
 8 -7.98072566416642  6.91821832263226 -0.31980976497650
 1 -9.07389568666867  6.26170181508151 -1.87955363816382

