%nproc=4
%Mem=2GB
# td=(NStates=1) iop(3/107=0140000000,3/108=0140000000) iop(3/107=0140000000,3/108=0140000000) CAM-B3LYP/6-31G(d,p) 

TD

0 1
12 -6.63677624972497  0.55800494459446  0.02153977347735
 6 -4.59104621112111 -2.17143556535654  0.54826510351035
 6 -4.29459127452745  2.68762039513951  0.96713959555956
 6 -8.94209691439144  3.29345336943694 -0.16864636633663
 6 -9.23931202880288 -1.76958998859886 -0.83637369606961
 7 -4.58422349424943  0.28112751045104  0.46669570167017
 6 -3.90029729532953 -0.88045775257526  0.63778433383338
 6 -2.50815423402340 -0.60190194939494  1.03374543684368
 6 -2.50612057785779  0.94414456325633  1.37247941044104
 6 -3.91036729962996  1.33594367956796  1.02266704140414
 6 -2.14376066176618  1.17361915781578  2.82416697949795
 6 -1.55838458685869 -0.97586014941494 -0.17873654735474
 6 -0.27372549084908 -1.18774048064806  0.32378145164516
 6  0.71024210341034 -1.36984422132213 -0.67479565336534
 8  0.65081514961496 -0.85115772827283 -1.87646863706371
 8  1.90090037663766 -2.18959925852585 -0.33592851535154
 7 -6.67270901310131  2.55931630163016  0.47018076597660
 6 -5.50242080298030  3.25796443964396  0.84088038423842
 6 -5.80915513071307  4.79613929872987  0.80606547514751
 6 -7.11390210361036  4.91297738823882  0.42080866416642
 6 -7.70574227812781  3.53866267466747  0.31244607600760
 6 -4.78039295959596  5.78279571007101  1.14098176617662
 6 -7.96488805010501  6.28578549864987  0.18458798249825
 8 -7.51222513871387  7.33385500210021  0.40554841164116
 7 -8.73834738823882  0.57675853505351 -0.40589323842384
 6 -9.36361003340334  1.79551428672867 -0.45906695899590
 6 -10.76451308160816  1.55557542864286 -0.80276605780578
 6 -10.95392975047505  0.34081498589859 -1.00305116061606
 6 -9.71153281658166 -0.41481964516452 -0.69535161186119
 6 -11.74022079737974  2.60642683578358 -1.18114276507651
 6 -12.27320044054405 -0.52881644394439 -1.36427456115612
 6 -12.23514037613761 -0.71777394259426 -2.79203199789979
 7 -6.78782526542654 -1.35009757105711 -0.16367901240124
 6 -7.97079974157416 -2.24140413711371 -0.61895509350935
 6 -7.50238782388239 -3.60399772217222 -0.56024703480348
 6 -6.27993361456146 -3.63703286418642 -0.16298455905591
 6 -5.79986627532753 -2.24770358485849 -0.07592140784078
 6 -8.46264478797880 -4.72992036983698 -0.72612542844284
 6 -5.10359656415642 -4.36125192329233  0.03986201190119
 8 -4.82543429212921 -5.47761830013001 -0.12796228962896
 6 -4.02474620002000 -3.47971853105311  0.47150179737974
 6 -3.42529604050405 -3.56064223972397  1.83808352135214
 8 -4.21799703980398 -3.85011174597460  2.89466813661366
 8 -2.09527120202020 -3.89359566486649  1.87298723792379
 6 -1.53578210031003 -4.01135622572257  3.25248967416742
 6  3.05657755055506 -2.24465964286429 -1.32313355745575
 6  4.08863263066307 -1.28772577367737 -0.75300083238324
 6  5.12067282268227 -1.13452032343234 -1.62521872347235
 6  5.28681266506651 -1.69729286398640 -2.85341232343234
 6  6.32579640424042 -0.23709136203620 -1.06604316281628
 6  7.45223391739174 -0.81462724482448 -0.97364410171017
 6  8.53962652295229  0.11377701230123 -0.55358383888389
 6  9.71504459385939 -0.64980190049005  0.17276897119712
 6  9.50110762706271 -1.14921373607361  1.50635500430043
 6  10.87811014101410  0.58723357755776  0.12321716011601
 6  12.27843311381138 -0.15829452225223  0.38576688788879
 6  13.40453199579958  0.94437171187119  0.22221511991199
 6  14.82415875107511  0.28795207330733  0.34746940904090
 6  15.14464945304530 -0.04991727222722  1.72758268226823
 6  15.88445807420742  1.27420232223222  0.09314251955196
 6  17.35085456355635  0.71369659405941 -0.02721959585959
 6  18.17913746114612  1.95545273647365 -0.54472461926193
 6  19.69776197729773  1.46874536933693 -0.51214129782978
 6  19.79539934123412  0.58414384468447 -1.77141293249325
 6  20.65840300920092  2.60159157715772 -0.52089718561856
 1 -3.33100373867387  3.27789904090409  1.08774817651765
 1 -9.91327531003100  4.12255134023402 -0.52151578547855
 1 -9.84103659525953 -2.52064246354635 -1.15829865576558
 1 -2.15123764056406 -1.23081069886989  2.12702275057506
 1 -1.91022036063606  1.43025350155015  0.55610206360636
 1 -1.28036942064206  0.86525483988399  2.90864157525753
 1 -1.98734690859086  2.39013759015902  3.00405652345234
 1 -2.52481481398140  1.04031191649165  3.35569143824382
 1 -2.00932995329533 -1.57206847984798 -0.68884667146715
 1 -1.39143431243124 -0.17545901880188 -0.95299509030903
 1 -0.20014201590159 -0.30901233453345  0.94013987918792
 1 -0.42619633943394 -1.95981231503150  1.02902313441344
 1 -3.85523005340534  5.83189101700170  0.57006196389639
 1 -5.30893117371737  6.77893056895690  0.92435934203420
 1 -4.36700772897290  5.70135909690969  2.18616638893889
 1 -8.99210222432243  6.04303941314131 -0.20930730653065
 1 -12.55486504010401 -1.23386425392539 -0.62232665986599
 1 -13.11577779277928  0.18442484228423 -1.11944958135814
 1 -12.82587041014102 -1.47413952935293 -3.12759987708771
 1 -12.70308727252725  0.45258267976798 -3.31340350985099
 1 -11.32887971237124 -1.34756807380738 -2.98063467086709
 1 -8.51881106440644 -4.65708226382638 -1.87960018801880
 1 -7.89805502010201 -5.77436744934494 -0.32634228612861
 1 -9.70738801880188 -4.75322728392839 -0.13421881238124
 1 -3.09016859825983 -3.83673739863986  0.11918361156116
 1  3.34786640204020 -3.33628090189019 -1.27958367546755
 1  2.86652094089409 -2.05688160316032 -2.44945518081808
 1  4.02663999169917 -0.98201094949495  0.53969757135714
 1  4.69240229722972 -0.95879935243524 -3.78874898989899
 1  6.40040361876188 -1.77449612501250 -3.45060628452845
 1  4.94995882328233 -2.76175879017902 -3.23537772157216
 1  6.49607002890289  0.37898323572357 -1.90982359955996
 1  5.97088219761976  0.43281882968297 -0.22653691709171
 1  7.25603678257826 -1.59482767986799 -0.52585086348635
 1  7.74015941434143 -1.28630742104210 -1.92771224712471
 1  8.61286341774177  1.01219181398140 -1.42915570087009
 1  7.98673717181718  0.95340052825283  0.00842655105511
 1  10.03902634973497 -1.63927137083708 -0.70688784638464
 1  8.88797104140414 -1.95903471917192  1.48771713251325
 1  10.56849291869187 -1.56100998219822  2.27460935233523
 1  9.31946515811581 -0.34316553895389  2.22702400750075
 1  10.72188582638264  0.91272403230323 -0.87715488708871
 1  10.78867861446145  1.35369424502450  0.82112599289929
 1  12.24790233243324 -0.52546498599860  1.38246192949295
 1  12.53344549854986 -1.12884110471047 -0.41988498599860
 1  13.36706157615762  1.36165571057106 -0.54761366596660
 1  13.43042508730873  1.97692194349435  0.95456124552455
 1  14.99725115091509 -0.76438395439544 -0.26544473567357
 1  15.41085098499850  0.57720811631163  2.44320709370937
 1  14.18605587908791 -0.42082975487549  2.06383388148815
 1  16.04586161926193 -1.02042562566257  1.78721519921992
 1  15.68875000990099  1.94583457685769 -0.60962093679368
 1  15.91839587218722  2.07371690719072  0.59399772297230
 1  17.89794110921092  0.56104927552755  1.13144333103310
 1  17.21316884108411 -0.12604443524352 -0.78600997839784
 1  17.98352335943595  2.38744529232923 -1.67137012531253
 1  18.26405640174018  3.10108401530153  0.17255392589259
 1  19.98804136533654  0.81385423162316  0.62958630943094
 1  19.92271058905891  1.05901095069507 -2.75074719991999
 1  20.47911220122012  0.15208340654065 -1.70547468086809
 1  19.06800952795280  0.05926820842084 -2.23048112281228
 1  20.77448422702270  3.22463204230423  0.27230798439844
 1  21.68853659395940  2.29029561226123 -0.70215293029303
 1  20.41856850975097  3.09391687888789 -1.10654545084509
 1 -0.61961758685869 -4.21584433383338  2.56365471347135
 1 -2.11346102710271 -4.64403167686769  3.96667730433043
 1 -1.34344835813581 -3.07158563566357  3.76637079027903
 8 -11.61722009630963  3.82014681388139 -0.96571838553855
 1 -12.83864437593759  2.47619885998600 -1.37091769676968

