%nproc=4
%Mem=2GB
# td=(NStates=1) iop(3/107=0140000000,3/108=0140000000) iop(3/107=0140000000,3/108=0140000000) CAM-B3LYP/6-31G(d,p) 

TD

0 1
12 -6.69126169826983  0.59396854095410 -0.01633401390139
 6 -4.48150525702570 -1.98536695849585  0.43702397939794
 6 -4.41984379977998  2.69941157425743  1.08245112671267
 6 -8.97999070377038  3.21050507460746 -0.14138364006401
 6 -9.28320641824183 -1.64386741634163 -0.69047910661066
 7 -4.86607167906791  0.37655705340534  0.68968800090009
 6 -4.02716998259826 -0.82490219701970  0.84489504490449
 6 -2.53016643524352 -0.50131189038904  1.20190225252525
 6 -2.57120708650865  1.02542269106911  1.45913807630763
 6 -4.04814107700770  1.40328041324132  1.04534930963096
 6 -2.36225251095109  1.35136693259326  2.92432699549955
 6 -1.65840458885889 -1.02775533893389  0.12180350665067
 6 -0.18300641894189 -1.00212191879188  0.47338641214121
 6  0.83202428162816 -1.12328956585659 -0.60512868666867
 8  0.81947201530153 -0.89197180968097 -1.84526551675168
 8  1.80952123872387 -2.01282158075808 -0.15615053755376
 7 -6.68085982818282  2.63417378737874  0.33565731363136
 6 -5.62548310921092  3.32264090729073  0.77251354755476
 6 -5.99884409960996  4.76347603240324  0.71864673327333
 6 -7.25235594899490  4.89714580508051  0.43084966826683
 6 -7.72619432333233  3.54507331573157  0.06448127952795
 6 -5.00531545184518  5.90161759225923  1.32967063506351
 6 -7.84346590789079  6.27302422252225  0.25334485818582
 8 -7.45184910111011  7.39667128372837  0.54553241004100
 7 -8.74702825632563  0.79917077627763 -0.38399104820482
 6 -9.50191386378638  1.86614134943494 -0.45160621292129
 6 -10.80463709400940  1.64438430953095 -1.06865264646465
 6 -10.87207156465647  0.12419332373237 -1.13208406390639
 6 -9.59246090939094 -0.28528669186919 -0.67451952865287
 6 -11.90017679297930  2.55939213231323 -1.32665731653165
 6 -12.12094521502150 -0.65047861016102 -1.50764889858986
 6 -12.18800566266627 -0.88745091029103 -3.12794558925893
 7 -6.88380486338634 -1.39976253755376 -0.05135778027803
 6 -7.98236089768977 -2.23726372307231 -0.46177937593759
 6 -7.63175076017602 -3.71607893029303 -0.47400841094109
 6 -6.28703432463246 -3.59151831273127 -0.03608186878688
 6 -5.74974126282628 -2.23039185368537  0.22780896519652
 6 -8.49583810731073 -4.97250462826283 -0.70006282218222
 6 -4.93616982148215 -4.38073387148715  0.10335836153615
 8 -4.55892764146415 -5.69047958625863 -0.03362285568557
 6 -3.85682940834083 -3.35243580278028  0.51795644284428
 6 -3.29614312521252 -3.74063023852385  1.91888160116012
 8 -3.88214345444544 -4.03577031183118  2.91752042184218
 8 -1.93238491339134 -3.55639194449445  1.87626756595660
 6 -1.40109863196320 -4.09740483058306  3.11818624382438
 6  2.80704259705971 -2.16327150405040 -1.17698894299430
 6  3.90020378777878 -1.14414141524152 -0.90247577987799
 6  5.13572432783278 -1.18096496789679 -1.77581378297830
 6  5.37354133793379 -1.95275841054105 -3.15249223142314
 6  5.98212203680368 -0.05820347324732 -1.28146470497050
 6  7.39507820182018 -0.75308109020902 -0.98026476377638
 6  8.44884744504450  0.23492912751275 -0.61318979947995
 6  9.74971806120612 -0.58125504580458 -0.21591989768977
 6  9.43202071837184 -1.18806762146215  1.22408677747775
 6  10.99204153415342  0.21020587478748 -0.02694785638564
 6  12.29552482298230 -0.25648434123412  0.05137344854485
 6  13.45412695529553  0.71262853755376  0.26159905830583
 6  14.88286462166217  0.29027230533053  0.39305396749675
 6  15.16775176327633 -0.12412469296930  1.77894781878188
 6  15.96369599799980  1.49738464046405  0.08235144044404
 6  17.39032851095109  0.89760498489849  0.13754688078808
 6  18.45096464386439  2.00356754795480 -0.21357150395040
 6  19.82036423752375  1.20590908570857 -0.55903598729873
 6  19.77641744304431  0.62867829812981 -1.97620341154115
 6  20.97481465036504  2.27170858885889 -0.44437953385339
 1 -3.36763740204020  3.27595884688469  1.09225862756276
 1 -9.84190817331733  4.07828691379138 -0.38846248014801
 1 -10.23269576117612 -2.51630202950295 -0.71423424932493
 1 -2.36009852665267 -0.85258287608761  1.99445949424943
 1 -2.01418075667567  1.47941841804181  0.98424487788779
 1 -1.63044442814281  0.94404271867187  3.17545825692569
 1 -2.15928410231023  2.32646122252225  3.11232735053505
 1 -3.13847618011801  0.79684757005701  3.57043291239124
 1 -1.94234325462546 -2.22281355435544  0.09963217641764
 1 -1.85840100910091 -0.58380985388539 -0.89951974277428
 1  0.04032203050305  0.02582114881488  1.30881674687469
 1 -0.06752047184718 -1.85209154295430  1.08315854795480
 1 -4.01988651905191  5.24960278817882  0.84549950765077
 1 -5.30928120872087  6.98085076097610  0.59047595369537
 1 -5.10642167036704  6.31084004500450  2.57191496379638
 1 -8.77636065016502  6.15347045624562  0.38544216841684
 1 -12.39406896049605 -1.79376024352435 -1.00216464366437
 1 -12.89061527652765 -0.05905950615062 -1.28045568196820
 1 -12.84803262636264 -1.41412352775278 -3.39681679877988
 1 -12.49995695949595  0.17700512201220 -3.93342551205120
 1 -11.24209103350335 -1.50009332633263 -3.39843645104511
 1 -8.63207239053905 -5.25600215581558 -1.96474870287029
 1 -7.92441765636564 -5.82594260686069 -0.56101575347535
 1 -9.48634591459146 -5.20415237643764 -0.10587597809781
 1 -2.76188576997700 -3.54764848974898 -0.18315662246225
 1  3.26035765116512 -3.19220649444945 -0.87406312341234
 1  2.29556384518452 -2.21603751875188 -2.28663889918992
 1  3.73425075277528 -0.57036978537854  0.11803540514051
 1  4.67049010601060 -0.96234970747075 -3.86254636963696
 1  6.57270084848485 -1.92151082648265 -3.61969319321932
 1  4.93839766716672 -3.24448706300630 -2.99591377517752
 1  6.15788621052105  0.66527186458646 -1.96065868306831
 1  5.43536864626463  0.87968351615162 -0.51267553095310
 1  7.55654683358336 -1.52710090719072 -0.15956423482348
 1  7.90609600800080 -1.43839262956295 -1.72531200710071
 1  9.07805993739374  0.89966056085609 -1.30617340264026
 1  8.29903840194019  1.01188637683768  0.21058676707671
 1  9.69945239233923 -1.35060250395040 -0.97454461206121
 1  8.55861810611061 -1.70149896559656  1.27544590539054
 1  10.42051812121212 -1.48680256145615  1.59790168156816
 1  9.22368558015802 -0.43364458685869  1.96770807590759
 1  11.18042167996800  0.87247000690069 -1.06236340794079
 1  10.93506325292529  0.74536341194119  0.90804468476848
 1  12.28656619881988 -1.21761420092009  0.76906058935894
 1  12.29309146314631 -0.76818503910391 -0.97264026152615
 1  13.66300117011701  1.19077862286229 -0.56598550315032
 1  13.41937398219822  1.51727597889789  1.04871066046605
 1  15.10102152795280 -0.22629014501450 -0.06610480168017
 1  14.95387528742874  0.24783517901790  2.58347112011201
 1  14.53027030053005 -0.91862953485349  1.71127862596260
 1  16.06246327942794 -0.75118870197020  1.74358083578358
 1  15.81106224112411  1.93686367976798 -1.19819979467947
 1  15.74182821542154  2.65933546904691  0.92673099629963
 1  17.41786310141014  0.09579274987499  1.22829301600160
 1  17.30050757495749 -0.13432526332633 -0.64439581698170
 1  17.98605361246125  2.53742028982898 -1.01140412871287
 1  18.44558455455546  2.66649055595560  0.53266993749375
 1  19.94935749694970  0.38364121032103  0.15256860766077
 1  19.93941225922592  1.45849089868987 -2.55988811401140
 1  20.49367365736574 -0.24990679247925 -2.07095122852285
 1  18.75337806480648  0.14462674427443 -2.35222329702970
 1  21.08966574517452  2.68218779787979  0.39478023162316
 1  21.97824556485649  1.85485206790679 -0.64219693469347
 1  20.52330898379838  3.14877236443644 -0.83105790209021
 1 -0.09433505860586 -3.80502325172517  3.01553990199020
 1 -1.54225390639064 -5.40617789148915  3.09974061066107
 1 -1.90417443074307 -3.25235371247125  4.00039419261926
 8 -11.67132550685069  3.74141894109411 -1.24389620332033
 1 -12.90727123862386  2.02251349144914 -1.71458206320632

