%nproc=4
%Mem=4GB
# td=(NStates=1) iop(3/107=0140000000,3/108=0140000000) iop(3/107=0140000000,3/108=0140000000) CAM-B3LYP/6-31G(d,p) 

TD

0 1
12 -5.61395290189019  1.27675254955496  0.24431303650365
 6 -4.99611999919992 -2.11049951325133 -0.29208607540754
 6 -3.25874466356636  1.23284356915692  2.63388876217622
 6 -6.25603439913991  4.53082634683468  0.61886209500950
 6 -7.95425119221922  1.22454330503050 -2.32633030653065
 7 -4.31205545884588 -0.26762495429543  1.13816515531553
 6 -4.20911443894390 -1.58950265186519  0.76898924852485
 6 -3.18060118461846 -2.34028733153315  1.46089045274527
 6 -2.91741491249125 -1.37084997589759  2.64333088918892
 6 -3.53808123552355 -0.05307793549355  2.09389397459746
 6 -3.47715075447545 -1.76709015041504  3.98980167956796
 6 -1.89582477567757 -2.80955836513651  0.71364667016702
 6 -0.93538518201820 -3.64374195479548  1.45866945494549
 6  0.26440154065407 -3.96353019371937  0.66638483318332
 8  0.52138220252025 -3.51941925552555 -0.44291052525253
 8  1.06877372307231 -4.85027464476448  1.18449305660566
 7 -4.96685750205021  2.62368174507451  1.49176940864086
 6 -3.99532162196220  2.44968238993899  2.41625222852285
 6 -3.73386288998900  3.70406890909091  3.14553510971097
 6 -4.48857941064106  4.61396292459246  2.58771804310431
 6 -5.22782888708871  3.98760685588559  1.47110320262026
 6 -2.79984534763476  3.81867924372437  4.28705289468947
 6 -4.64497102770277  6.04061148164816  2.88082758755876
 8 -4.02311235923592  6.67327521552155  3.79246314621462
 7 -6.77319111901190  2.65561545734573 -0.75519717601760
 6 -6.99342205700570  3.94251386858686 -0.35632732143214
 6 -7.95137032343234  4.50606733153315 -1.14148825832583
 6 -8.36865631893189  3.65127205710571 -2.06336528092809
 6 -7.64699358985899  2.45477148594859 -1.79133508000800
 6 -8.40132312321232  6.02390229962996 -1.15172468126813
 6 -9.39641400470047  3.81764216241624 -3.17557219001900
 6 -8.68701015471547  4.07996614281428 -4.48065446944694
 7 -6.44532295129513 -0.10396541424142 -1.11632672467247
 6 -7.37676720632063  0.03405733713371 -2.03766797749775
 6 -7.57646515371537 -1.28082978657866 -2.76732925552555
 6 -6.60096964576458 -2.17315688748875 -2.15678184388439
 6 -6.00435885128513 -1.36280984608461 -1.04564069446945
 6 -8.42891834963496 -1.64066419241924 -3.92421931813181
 6 -6.14770843794379 -3.53179876377638 -2.03593714881488
 8 -6.53246764226423 -4.46099379777978 -2.68535480058006
 6 -5.18839740184018 -3.55154320692069 -0.81864418421842
 6 -5.31928940634063 -4.66888232933293  0.13133680548055
 8 -5.79725549714971 -4.42804181228123  1.27971433483348
 8 -5.11734143234323 -5.83874507090709 -0.36098924352435
 6 -5.40303786798680 -7.00988284158416  0.43432526232623
 6  2.24213518671867 -5.15300642084208  0.60972492689269
 6  3.43256779177918 -4.33132329322932  1.01233913371337
 6  4.03955334553455 -3.40147301740174  0.25981961696170
 6  3.58735307420742 -3.18505344664466 -1.27547705220522
 6  5.10405683148315 -2.50925597319732  0.73215701450145
 6  6.47428229952995 -2.81502442764276  0.00890235763576
 6  7.54136946054606 -1.78046740224022  0.52240793129313
 6  9.00762158345835 -1.92395722932293 -0.03405118761876
 6  9.52289867156716 -3.41933257365737  0.25250179247925
 6  9.99753033213321 -0.87719795719572  0.38619113461346
 6  11.24509181158116 -0.78929853675368 -0.43156192239224
 6  12.13622131073107  0.33780840834083  0.09120596819682
 6  13.42192464826483  0.52248711861186 -0.63550831403140
 6  14.44867316631663 -0.66103550615062 -0.39041319221922
 6  14.17930386998700  1.83856002760276 -0.28409766456646
 6  15.39214340474047  2.20209823802380 -1.08779377437744
 6  16.08801138553855  3.59835458825883 -0.61611222442244
 6  17.41476672577258  3.91187902950295 -1.18789272447245
 6  17.32619520922092  3.95639053075308 -2.80743296749675
 6  17.84295370147015  5.27631289658966 -0.72396185508551
 1 -2.45973169596960  1.36263053845385  3.51721218961896
 1 -6.56098407720772  5.71794717511751  0.98233722542254
 1 -8.60890129732973  1.34280458335834 -3.25277075587559
 1 -3.57390845564556 -3.15061037643764  2.05026308710871
 1 -1.92907003090309 -1.23133079467947  2.86293756985699
 1 -2.99696947604760 -2.64263742494249  4.51641518551855
 1 -3.47315810851085 -0.87218712311231  4.66953898369837
 1 -4.50922343404340 -1.96506558745875  3.81034498499850
 1 -2.17709302300230 -3.25928544584458 -0.19732035583558
 1 -1.19486731913191 -1.92106122242224  0.48818694029403
 1 -0.38890432393239 -3.10657195279528  2.16585080378038
 1 -1.20310503210321 -4.67880501170117  2.06726852485249
 1 -1.70210032383238  3.72643216761676  3.85201111081108
 1 -2.93770476057606  4.72052925892589  5.02019827752775
 1 -2.97406040104010  2.89416041354135  4.82393739973997
 1 -5.39670273417342  6.60800499489949  2.31254657605761
 1 -10.13825295879588  2.76819747684768 -3.27384063576358
 1 -10.06191698959896  4.55734957905791 -2.65072536323632
 1 -9.33280308010801  4.47697611161116 -5.41093629592959
 1 -7.86570608000800  4.78331807720772 -4.13647360236024
 1 -8.20824067306731  3.26154551335134 -4.89676960176017
 1 -8.26563415301530 -1.13922446534653 -4.93152415071507
 1 -8.42367335033503 -2.71919532463246 -4.05358799579958
 1 -9.55582566206621 -1.36248307170717 -3.70927783448345
 1 -4.44784214161416 -3.89886471307131 -1.36102938983898
 1  2.41731286428643 -6.27061500450045  0.80217617451745
 1  2.24607535093509 -5.08324530063006 -0.51460491009101
 1  3.64353647594759 -4.17128641044104  2.06067107470747
 1  2.54605959265927 -3.52443806490649 -1.50094263526353
 1  3.80739535283528 -2.23934749404940 -1.60313278377838
 1  4.20904307830783 -3.78188191739174 -1.99238816471647
 1  4.87325736663666 -1.56646307030703  0.55941782528253
 1  5.14947347464747 -2.52427405980598  1.98482336263626
 1  6.79329685638564 -3.76570976307631  0.23868175217522
 1  6.35862602300230 -2.79834744374437 -1.12341293679368
 1  7.32168109940994 -0.73164648974897  0.25416266176618
 1  7.59564166706671 -1.74201078417842  1.68309269456946
 1  8.74802891219122 -1.92113038823882 -1.07761109920992
 1  9.00056457515752 -4.24238300970097 -0.16354014641464
 1  10.57387672847285 -3.12506670877088 -0.06609672317232
 1  9.65277433883388 -3.46256734823482  1.31113155585559
 1  9.55619477007701  0.11081680788079  0.23639900370037
 1  10.21248134563456 -0.89522605650565  1.52595213521352
 1  12.02126726802680 -1.71027105900590 -0.47200157335734
 1  10.98687477417742 -0.62284518941894 -1.43619495309531
 1  11.60846187968797  1.27204163336334 -0.27544709990999
 1  12.39514433773377  0.23473466486649  1.08574685488549
 1  13.12623942464246  0.51500593289329 -1.80883312201220
 1  14.95147448574857 -0.53910212291229  0.53592927292729
 1  13.83429900090009 -1.72525154145415 -0.42030835233523
 1  15.23824481288129 -0.40570376857686 -0.90298719121912
 1  13.69231742594259  2.70926554565457 -0.48327011471147
 1  14.31807850815082  1.56599688888889  0.85779299319932
 1  16.15771742754275  1.53644225692569 -1.04078056875688
 1  15.26312189558956  2.22630654345435 -2.11957333703370
 1  15.32438384298430  4.43587896589659 -0.88891088918892
 1  16.06547931803181  3.47345398679868  0.40709060946095
 1  18.01640532193219  3.08936042724272 -0.92020109970997
 1  16.72540326072607  4.72207873677368 -3.14273663346335
 1  18.27659358285829  4.22918243154315 -3.21393599869987
 1  16.96394659485949  2.91768283828383 -3.14817285188519
 1  18.05432147934793  5.13822504000400  0.47212887708771
 1  18.83214073637364  5.59432358455846 -1.01962887728773
 1  17.02858440934093  6.05388489158916 -1.07068112941294
 1 -5.23223852525253 -7.95408484158416 -0.04319785748575
 1 -6.56760119041904 -7.17379446604660  0.68736224372437
 1 -4.74233240184018 -6.96477805340534  1.43522797939794
 8 -7.80054764636464  6.79801630243024 -0.37669545354535
 1 -9.10343864096410  6.16806245114511 -1.94234991779178

