%nproc=4
%Mem=2GB
# td=(NStates=1) iop(3/107=0140000000,3/108=0140000000) iop(3/107=0140000000,3/108=0140000000) CAM-B3LYP/6-31G(d,p) 

TD

0 1
12 -6.66530910301030  0.59615875997600  0.18929654915492
 6 -4.48181528802880 -1.92873129492949  0.36021629862986
 6 -4.18145996139614  2.65104673777378  0.98957183878388
 6 -8.90895360006001  3.12118614271427 -0.16234573627363
 6 -9.45294339193920 -1.77203023262326 -0.61381143984398
 7 -4.75600067196720  0.32337173487349  0.46642567466747
 6 -3.88473573917392 -0.90775048184818  0.59777033243324
 6 -2.63369678827883 -0.61230298949895  0.95996805910591
 6 -2.49647961376138  1.00783093189319  1.46011817431743
 6 -3.82018828172817  1.37257734293429  0.82857763246325
 6 -2.14675096079608  1.18044984088409  2.86460102290229
 6 -1.73880262866287 -0.96194875827583 -0.25997467116712
 6 -0.24707282558256 -1.46044775137514  0.15113418691869
 6  0.70760183938394 -1.44002123902390 -1.01744991879188
 8  0.80746081418142 -0.76987960046005 -2.03332432263226
 8  1.88381866846685 -2.24128442704270 -0.62361728422842
 7 -6.53060480268027  2.52846321632163  0.32727647554755
 6 -5.47930849174918  3.25867451065106  0.72316861306131
 6 -5.67868208340834  4.71615129992999  0.68545341394139
 6 -7.08533924732473  4.85642173267327  0.32967955125513
 6 -7.67579928382838  3.43664247264726  0.24400923232323
 6 -4.71550647094709  5.74646207670767  1.05214288228823
 6 -7.77359892119212  6.03972089218922  0.19611913561356
 8 -7.47801171737174  7.14944656125613  0.34978283508351
 7 -8.74823837733773  0.69589044824482 -0.35817846694669
 6 -9.45600927332733  1.78764349964996 -0.32660371267127
 6 -10.86379300960096  1.60068994009401 -0.84096987818782
 6 -10.92665702320232  0.35383628802880 -0.85760661616162
 6 -9.53103476677668 -0.30551871507151 -0.69255133183318
 6 -11.86903367866786  2.62665885898590 -1.06229087988799
 6 -12.19360248074807 -0.47754131643164 -1.24478261196120
 6 -12.22295915801580 -0.82027419261926 -2.67177997269727
 7 -6.91509799269927 -1.35627818911891 -0.12036468096810
 6 -8.03361602320232 -2.24043404010401 -0.41752495049505
 6 -7.50495808090809 -3.66056337873787 -0.49419042914291
 6 -6.16084170537054 -3.53947310821082 -0.18109637023702
 6 -5.93325961466147 -2.16574538903890  0.10781696599660
 6 -8.31896041954195 -4.86100347814781 -0.60861367726773
 6 -4.98413461796180 -4.42269806790679  0.19035706140614
 8 -4.97662941164116 -5.62841337963796 -0.05536502990299
 6 -3.86773049844985 -3.34772533173317  0.48069271647165
 6 -3.44064757565757 -3.62671884738474  1.97529724272427
 8 -4.10672591269127 -3.79884661946195  3.06711538133813
 8 -2.38056973187319 -3.59182548784878  1.88828876807681
 6 -1.51817033913391 -3.79873496359636  3.11660608580858
 6  3.02423431623162 -2.30427560446045 -1.58924016811681
 6  4.01716548394840 -1.24156115721572 -1.12969850215022
 6  5.09733048844884 -1.08600547194719 -1.91053725532553
 6  5.45290927472747 -2.03323645834583 -3.03613059525953
 6  6.20628445304530 -0.24223187608761 -1.35457201570157
 6  7.38750744474447 -0.84931071317132 -0.63759049634963
 6  8.54286684698470  0.19692532713271 -0.60334881538154
 6  9.76752984238424 -0.40054697499750 -0.00901920762076
 6  9.63824134043404 -1.03540235493549  1.36284065286529
 6  11.04850718071807  0.54608946314631 -0.02403756535654
 6  12.27281255175517 -0.06731542434243  0.09731804300430
 6  13.31463300590059  1.09783705840584  0.22534543294329
 6  14.65668200340034  0.54676795489549  0.43565822792279
 6  14.85713070117012  0.14595231473147  1.94315423942394
 6  15.84625425382538  1.51350625262526  0.09448265356536
 6  17.20767024512451  0.90330555495550 -0.09219609350935
 6  18.29103865126513  1.99215640684068 -0.17522766956696
 6  19.76931913301330  1.16506500130013 -0.21569165286529
 6  20.02117191849185  0.29473490379038 -1.48897468866887
 6  20.85850301920192  2.16797821582158 -0.18569366526653
 1 -3.26581722002200  3.49346059705971  1.17186658835884
 1 -9.51636561906191  4.04595368046805  0.03285965206521
 1 -10.29828231983198 -2.32723312261226 -0.80765359125913
 1 -2.20127264406441 -1.23444106190619  2.14905495379538
 1 -1.84832417101710  1.73030350655065  0.52891934533453
 1 -1.06626801050105  0.60845916031603  3.27166787788779
 1 -2.19229740364036  2.48386696309631  2.96507262506251
 1 -3.02966529902990  0.60785867116712  3.50220608970897
 1 -2.00152917321732 -1.57031830483048 -0.94046183298330
 1 -1.80040520952095 -0.10855232813281 -0.76209600040004
 1  0.08998699699970 -0.66293772707271  1.02557842304230
 1 -0.55739945974597 -2.54902123592359  0.42945317741774
 1 -3.87430196059606  5.77115494339434  0.32768772647265
 1 -5.36977725832583  6.77490016591659  0.69575648174817
 1 -4.20039106730673  5.76112507350735  1.95218299059906
 1 -8.58519153325333  5.89032414161416 -0.15830220602060
 1 -12.04595414901490 -1.47529839733973 -0.63035746294630
 1 -13.05156137113711  0.13725012481248 -1.12182981938194
 1 -13.20574839793979 -1.43191530693069 -3.25759287638764
 1 -12.39245620942094  0.16054347584758 -3.47821999149915
 1 -11.32187901230123 -1.30464378137814 -3.07980458785879
 1 -8.85627481078108 -4.77037359295930 -1.22231445944594
 1 -7.79843505810581 -5.72572258485849 -0.63623327522752
 1 -9.10262754275428 -4.86765872707271  0.53384799429943
 1 -2.99927950935094 -3.72523624852485 -0.25130343714371
 1  3.39737135253525 -3.24568184198420 -1.26349206630663
 1  2.67115140394039 -2.15602151715172 -2.68384862016202
 1  3.77706503420342 -0.76713946234624 -0.06965336373637
 1  4.47640069706971 -2.32247572007201 -3.89538965396540
 1  5.99874345274527 -1.51259993539354 -3.83149437333733
 1  5.92356618401840 -2.79457207150715 -2.89585376917692
 1  6.49591001290129  0.45591092849285 -2.33007562476248
 1  5.54223933333333  0.40007555535554 -0.76246050945095
 1  7.31085226412641 -1.62625082218222  0.39315103670367
 1  7.93675907430743 -1.36236502680268 -1.62624210011001
 1  8.49480161156116  1.06127672247225 -1.30089287458746
 1  8.29798829692969  0.98110329852985  0.47707341574157
 1  9.96590903800380 -1.08897634133413 -0.67568472607261
 1  8.79709195349535 -1.76213502920292  1.56123448424843
 1  10.40213628302830 -1.26111999319932  1.49092098349835
 1  9.64966817841784 -0.24080530293029  2.07328863396340
 1  11.07873151095109  1.00715347524752 -0.83066023762376
 1  10.93089283588359  1.28538741434143  0.72640652095210
 1  12.37036457865787 -0.57205964546455  1.23041672497250
 1  12.48337049104911 -0.79787800840084 -0.80550354785479
 1  13.29431430143014  1.43864340934093 -0.69082798739874
 1  13.33870591539154  1.71893614491449  1.00884667406741
 1  14.88915034083408 -0.30552806880688 -0.37043523472347
 1  14.36186608650865  0.58853924942494  2.71411418441844
 1  14.33400067356736 -0.84060173207321  1.92643014111411
 1  15.77008404150415 -0.17385096819682  2.35742221992199
 1  15.84710584548455  1.97310730413041 -1.19757973267327
 1  15.87882191479148  2.51386092159216  0.86678500170017
 1  17.60393170827083  0.34447761836184  1.03371355805581
 1  17.34634215841584  0.08249641884188 -0.70742211961196
 1  18.24045905300530  2.39017556535654 -1.37129011731173
 1  17.95672566866687  2.93022692959296  0.54096076657666
 1  19.95728829002901  0.67400024622462  0.96501985278528
 1  20.15644396239624  1.09359440904090 -2.42690481568157
 1  20.65252954295429 -0.11428323012301 -1.25107924132413
 1  18.87392011901190 -0.17009472787279 -1.45449352405240
 1  20.59613639223922  2.92269184828483  0.47003775737574
 1  21.55712345264527  2.04170075277528 -0.19126184118412
 1  21.00796744964496  2.69045653285329 -1.06932172847285
 1 -0.71609723482348 -4.57536028542854  2.77666601460146
 1 -2.05037471847185 -4.76398367206721  3.49033967056706
 1 -1.61402541584158 -2.58948742584258  3.54786894009401
 8 -11.79666804110411  3.84147894709471 -0.85420723442344
 1 -13.12078258975898  2.14135537563756 -1.41964256925693

