%nproc=4
%Mem=4GB
# td=(NStates=1) iop(3/107=0140000000,3/108=0140000000) iop(3/107=0140000000,3/108=0140000000) CAM-B3LYP/6-31G(d,p) 

TD

0 1
12 -5.62932443904390  1.20146502080208  0.30747935313531
 6 -5.01842222942294 -2.10820928422842 -0.30708757555756
 6 -3.36543533263326  1.25545583038304  2.73622899619962
 6 -6.25832462816282  4.47630089428943  0.73363357215722
 6 -7.97459322642264  1.11409225992599 -2.38937661116112
 7 -4.30867512081208 -0.18759695149515  1.03329466826683
 6 -4.20277380488049 -1.58315201680168  0.62867521712171
 6 -3.19285240974097 -2.28447174997500  1.58154251795180
 6 -2.89989316031603 -1.25911880278028  2.55400195629563
 6 -3.55227265466547 -0.02962559025903  2.12838742394239
 6 -3.46198923832383 -1.52084552595260  3.97090979037904
 6 -2.00126531973197 -2.70967837713771  0.60998630413041
 6 -0.97543918741874 -3.72365994659466  1.35036862486249
 6  0.26763186368637 -4.03056689738974  0.57415561026103
 8  0.36533659795980 -3.58584589818982 -0.60593682788279
 8  1.07691453715372 -4.73661327862786  1.28512311961196
 7 -4.86436725302530  2.61849122602260  1.59542977467747
 6 -4.00950304010401  2.41875929762976  2.46340694399440
 6 -3.73198270197020  3.66857535973597  3.18402895909591
 6 -4.55503605630563  4.63515504380438  2.62421169246925
 6 -5.30571667586759  3.99833792899290  1.61994808710871
 6 -2.78694405750575  3.90855823162316  4.18557274667467
 6 -4.61374790539054  6.13630105060506  2.81958146294629
 8 -4.10145019301930  6.60088797679768  3.80006390629063
 7 -6.84747854775478  2.53917381318132 -0.78958061436144
 6 -6.97638035283528  3.91505112231223 -0.33976566526653
 6 -7.85342052845284  4.65289201400140 -1.18214232373237
 6 -8.35956540984098  3.67764469436944 -2.14403334773477
 6 -7.72007089758976  2.37851386018602 -1.76929287578758
 6 -8.42250524142414  6.02320222962296 -1.09199870867087
 6 -9.45107947124712  3.76782718091809 -3.11234586738674
 6 -8.85142659635964  3.94295244144414 -4.57267367136714
 7 -6.35585400440044 -0.15371038873887 -1.08005309730973
 6 -7.22050157975798 -0.03780984958496 -2.11907611831183
 6 -7.44347185438544 -1.30730243384338 -2.75613813641364
 6 -6.56828637743774 -2.17729730153015 -2.15757192289229
 6 -5.93536195159516 -1.28726229132913 -1.08126425682568
 6 -8.48008346614661 -1.74272439843984 -3.78496539273927
 6 -6.13864753185319 -3.50584616851685 -2.00169372447245
 8 -6.43416781228123 -4.59935763416342 -2.55737200230023
 6 -5.01863042514251 -3.56604465706571 -0.78685100490049
 6 -5.41680915831583 -4.62126756785679  0.21357502930293
 8 -5.88507427902790 -4.38857786588659  1.35570193359336
 8 -5.18047774597460 -5.78030922732273 -0.25030817541754
 6 -5.40776834103410 -6.96843869716972  0.48624045384538
 6  2.26189716291629 -5.17163828402840  0.57678163256326
 6  3.50013454845485 -4.33722388328833  0.87526542634263
 6  4.08006739693969 -3.43240611071107  0.10937457245725
 6  3.67900223912391 -3.10880582188219 -1.25572507700770
 6  5.10185661146115 -2.50918596619662  0.69945374417442
 6  6.49718458975898 -2.70006293149315 -0.12694122672267
 6  7.56535185878588 -1.75261461696170  0.44059975047505
 6  8.96049687098710 -1.94964979857986 -0.14464224672467
 6  9.51836821852185 -3.39442008240824  0.05768231053105
 6  9.98488906800680 -0.89468970637064  0.45610812631263
 6  11.26691399379938 -0.77809741664166 -0.44954372057206
 6  12.17639532813281  0.40214484198420  0.04282112971297
 6  13.54149660546055  0.45874074397440 -0.68330309350935
 6  14.39325762476248 -0.77761716431643 -0.48318246914691
 6  14.25533147274727  1.75896206780678 -0.20916017081708
 6  15.48373256365636  2.20483851205121 -0.88570356535654
 6  16.05298788318832  3.52195694849485 -0.52387300050005
 6  17.35931118021802  3.93134097569757 -1.11307524272427
 6  17.22159474917492  4.02491738343834 -2.71280350455046
 6  17.91110051615161  5.20448571387139 -0.56359581848185
 1 -2.58759448224823  1.43580785618562  3.60802127052705
 1 -6.51504948374837  5.45753113351335  0.84689368106811
 1 -8.73795420262026  1.16163646654665 -3.18047352615262
 1 -3.65926699149915 -3.09095441084108  2.21920998179818
 1 -1.77351447534754 -1.01337899949995  2.59869114521452
 1 -2.99958973807381 -2.44711787298730  4.31008455245525
 1 -2.98298909160916 -0.74777468186819  4.68963099289929
 1 -4.51233374507451 -1.54379346024602  3.93302725322532
 1 -2.37936325002500 -3.26569608690869 -0.14892551635163
 1 -1.31296912931293 -1.77709682598260  0.40902902450245
 1 -0.75024045754575 -3.06402769836984  2.17683190189019
 1 -1.45461018261826 -4.47524465566557  1.81789358735874
 1 -1.74961507530753  3.71904142854285  3.77379328902890
 1 -2.92499348944894  4.92092929892989  4.62293855155516
 1 -2.86093908890889  2.95440643814381  4.95200020602060
 1 -5.11085414931493  6.73524771917192  1.93505882728273
 1 -10.07785691919192  2.79081973907391 -3.21370462216222
 1 -10.14001479937994  4.55183902800280 -2.97901819251925
 1 -9.72289208900890  4.20373878787879 -5.28001320362036
 1 -7.86633614301430  4.65619536493649 -4.74540449544955
 1 -8.41997184618462  2.95247460626063 -5.07844776957696
 1 -8.17754534413441 -1.36910745364536 -4.78197919621962
 1 -8.41660264326433 -2.67955136023602 -3.88679131613161
 1 -9.37449752925293 -1.53026985038504 -3.59779668636864
 1 -4.07631498889889 -3.86391121772177 -1.39307259415942
 1  2.35355648864887 -6.38051599459946  0.81553751065106
 1  1.86622736613661 -5.33079005510551 -0.56522997259726
 1  3.84010613291329 -4.37960724252425  1.94005901350135
 1  2.84297928462846 -3.47935355645565 -1.65199774077408
 1  3.63000761406141 -2.07034059335934 -1.42578504900490
 1  4.48256043004301 -3.64734846404640 -1.94678360426043
 1  4.65183522442244 -1.40417684168417  0.54593647714771
 1  5.04004253155315 -2.61439307170717  1.74753963426343
 1  6.62973049974998 -3.63871706380638 -0.04437655365537
 1  6.24116427682768 -2.58067567656766 -1.15478607410741
 1  7.32234116541654 -0.51357468256826  0.48649589508951
 1  7.80954305720572 -1.97625420852085  1.52161654695470
 1  8.93368747804780 -1.94517279247925 -1.29805314341434
 1  8.90071459015902 -4.01611038243824 -0.40142393479348
 1  10.46278561936194 -3.60915511761176 -0.46828694219422
 1  9.62017107850785 -3.56641773327333  1.20409085178518
 1  9.46742589318932  0.14863058925893  0.37432279607961
 1  10.42222231973197 -1.11742827672767  1.48916845684568
 1  11.77924306560656 -1.73370340224022 -0.47942231543154
 1  11.14322040874087 -0.49781268616862 -1.42128346194620
 1  11.52526355985599  1.25533996319632  0.01770221502150
 1  12.27458228152815  0.17695888728873  1.27320560076008
 1  13.38210501120112  0.54346877917792 -1.77677991669167
 1  14.70491983028303 -0.95018323102310  0.51133681368137
 1  13.83300887188719 -1.62544156045605 -0.87453377487749
 1  15.25275626402640 -0.44230742894289 -1.06247313981398
 1  13.50894908910891  2.59779439853985 -0.12743453115312
 1  14.54170087038704  1.56503679287929  0.63565077897790
 1  16.40565222102210  1.43313192589259 -1.05909239993999
 1  15.33425900930093  2.46625053785379 -1.93351473117312
 1  15.37953935853585  4.25812119011901 -0.72853485158516
 1  16.21083385348535  3.41912855425543  0.42453235363536
 1  18.11512519391939  3.06893838503850 -1.09284836443644
 1  16.32105282568257  4.61131766066607 -3.09286164596460
 1  17.99078500200020  4.41264077737774 -3.24572917801780
 1  16.96374657485748  3.10465153515352 -3.31302933753375
 1  17.94232027922792  5.21167238473847  0.66956862106211
 1  19.04561208350835  5.27884203640364 -0.80838775317532
 1  17.11503305420542  6.01104060716072 -0.88294235553555
 1 -5.18494379577958 -7.76275570867087 -0.27004054175418
 1 -6.48927335763576 -6.94564165076508  0.74842835033503
 1 -4.48971714031403 -7.20452202780278  1.34090854745475
 8 -7.73948153975398  6.87051355215522 -0.39688747274727
 1 -9.39710800790079  6.34498014291429 -1.71304698749875

