%nproc=4
%Mem=2GB
# td=(NStates=1) iop(3/107=0140000000,3/108=0140000000) iop(3/107=0140000000,3/108=0140000000) CAM-B3LYP/6-31G(d,p) 

TD

0 1
12 -6.69998257035704  0.56585572967297 -0.09970235073507
 6 -4.38014512101210 -1.82434085588559  0.23623390039004
 6 -4.00647246264626  2.82203383648365  0.76388927052705
 6 -9.17965066976698  3.11920594469447 -0.03280278197820
 6 -9.40744884248425 -1.86778980858086 -0.56595665436544
 7 -4.64624969686969  0.58029742744274  0.44070310241024
 6 -3.80335760136014 -0.69870957775778  0.41308186358636
 6 -2.33527694629463 -0.46942870207021  0.75741780408041
 6 -2.33356332213221  0.92673282208221  0.99226138863886
 6 -3.86815307820782  1.45539562476248  0.70486526122612
 6 -2.00916720242024  1.53340513641364  2.34808937173717
 6 -1.52433118151815 -1.16872943634363 -0.28358703240324
 6 -0.09621774007401 -1.02854456105611  0.35921499499950
 6  0.81517259645965 -1.23681091799180 -0.70470864466447
 8  0.85884595269527 -0.68195080758076 -1.79068005820582
 8  1.90982126872687 -2.10028032663266 -0.32951787428743
 7 -6.71126286848685  2.63304367436744  0.22834658255826
 6 -5.51560212111211  3.23139178237824  0.46655295149515
 6 -5.92331654685469  4.72444212901290  0.53843871247125
 6 -7.24844555795580  4.92311840234023  0.39718630193019
 6 -7.79820152405241  3.39460826922692  0.21933676507651
 6 -4.89909482978298  5.84374180468047  0.85698336633663
 6 -8.07826938823882  6.11146806690669  0.42639216291629
 8 -7.55157907410741  7.25287690429043  0.41639949674968
 7 -8.91549510301030  0.55218607780778 -0.24443709280928
 6 -9.66066973937394  1.80716545184518 -0.18569962226223
 6 -11.08357498779878  1.45550542164216 -0.47852363356336
 6 -11.08168252575257  0.00566147054705 -0.68137899339934
 6 -9.71401306460646 -0.42543070627063 -0.57276935363536
 6 -12.04967174247425  2.44010020312031 -0.81543619441944
 6 -12.25384850535053 -0.86329989228923 -1.01136927062706
 6 -12.48606546864687 -0.83406557175718 -2.62076487118712
 7 -6.88856533943394 -1.43656621792179 -0.37530017451745
 6 -8.07650031163116 -2.34590458715872 -0.45869906790679
 6 -7.54497208230823 -3.67109443184318 -0.40871188128813
 6 -6.16053167436744 -3.61546070697070 -0.19426768736874
 6 -5.83454974367437 -2.23379219371937 -0.08676249194919
 6 -8.48480700420042 -4.89581695949595 -0.48828164406441
 6 -4.98504470897090 -4.34683048114811  0.05901392709271
 8 -4.97491924062406 -5.60666120442044  0.14712521912191
 6 -3.89508323372337 -3.34007456665667  0.37604225142514
 6 -3.25849936083608 -3.51704788028803  1.84091380438044
 8 -3.76575181528153 -3.62894962976298  2.88449711951195
 8 -1.94191586648665 -3.67313361866187  1.63648358755876
 6 -1.42409093119312 -3.91655674577458  2.77272169736974
 6  3.09264115691569 -2.18593377027703 -1.29879112321232
 6  4.09658342574257 -1.29083608470847 -0.69599513181318
 6  5.07775853125313 -1.06445331673167 -1.76168236983698
 6  5.37715169896990 -1.55726886158616 -3.18950593279328
 6  6.17037086168617  0.04914726182618 -1.34820137863786
 6  7.46676537053705 -0.76783256535654 -0.89822655995600
 6  8.44373693399340  0.48148378297830 -0.45426390689069
 6  9.65779886928693 -0.24937185748575  0.03949564386439
 6  9.28804632093209 -0.80380919561956  1.44831920072007
 6  10.95613794379438  0.69277413161316  0.00491532993299
 6  12.30496576707671 -0.00826951975198  0.24192250345034
 6  13.51929347194719  1.02376965166517  0.21180407880788
 6  14.90792712791279  0.35878915701570  0.62397705980598
 6  14.92019700780078 -0.24485676617662  1.89541946594659
 6  16.10744037243725  1.18962386438644  0.28392159745975
 6  17.37752723082308  0.53682890729073  0.18694182028203
 6  18.28244779217922  1.63242043324332 -0.12866301310131
 6  19.82967516861686  1.00334882968297 -0.38411849554956
 6  19.95972577387739  0.23261869216922 -1.65314110531053
 6  20.96315348424843  1.92661407940794 -0.24167926382638
 1 -3.27317795609561  3.73527477847785  0.54044344604460
 1 -9.94493847634763  3.88314739983998 -0.03180681458146
 1 -10.17178967056706 -2.43095349464947 -0.65208803470347
 1 -2.11067358415842 -0.90561817961796  1.88736878517852
 1 -1.83686302490249  1.32482295849585  0.37717417081708
 1 -0.53025440914091  1.44123243764377  2.65259597069707
 1 -2.68337651155116  2.70330890729073  2.53144926272627
 1 -2.28829116161616  0.49457734303430  3.13699956905691
 1 -1.97269628992899 -2.06866813981398 -0.70475826262626
 1 -1.61349651865187 -0.53482495539554 -1.36243603440344
 1 -0.14409641134113 -0.04125555885589  0.66040190539054
 1 -0.29105282508251 -1.87200353415342  1.04209444154415
 1 -4.28169269966997  6.25211303920392 -0.24621966426643
 1 -5.39319960056006  6.82504518041804  0.92193910001000
 1 -4.27921895009501  5.77536649764976  1.73429120142014
 1 -9.40458347244724  6.07079218841884  0.60895451965196
 1 -11.92157171077108 -1.93171403890389 -0.55605003220322
 1 -13.33801001600160 -0.78387198739874 -0.39069670607061
 1 -13.28625644874487 -1.66299841524152 -2.95357247434743
 1 -12.79280624442444  0.17017443894389 -2.84581675117512
 1 -11.69511633603360 -1.30029334633463 -3.02927953535354
 1 -9.11182036533653 -5.35068162376238 -2.02857508550855
 1 -8.02670788538854 -5.70656066866687 -0.36398605050505
 1 -9.29544682468247 -4.60716267746775  0.61384599409941
 1 -3.10642022342234 -3.27711143604360 -0.46636494329433
 1  3.35415703110311 -3.63547082088209 -1.52711842894290
 1  2.70765505430543 -1.99776569156916 -2.46097633293329
 1  4.01564889258926 -0.87706045444544  0.52305590719072
 1  4.68023108010801 -1.43806727922792 -4.01529164416442
 1  5.88128170657066 -1.14129280468047 -3.68721994589459
 1  5.86514034143414 -2.54542715701570 -3.13479766356636
 1  6.33591401330133  0.85533087048705 -2.17036965416542
 1  5.55046015541554  0.54718026582658 -0.33860812421242
 1  7.10164134303430 -1.63009120622062  0.24561628322832
 1  7.97017241564156 -1.39575836613661 -1.66848632453245
 1  8.55574770617062  1.32609320412041 -1.32733551885189
 1  8.03229172727273  0.97324251245125  0.37429313771377
 1  9.51953440054005 -1.35468291199120 -0.64038119571957
 1  8.38597084138414 -1.51066988268827  1.66005436623662
 1  10.28401447084708 -1.45348923012301  2.24228612001200
 1  8.97719093069307  0.05563434103410  2.17876918201820
 1  10.89600323812381  1.17019977987799 -1.14012118371837
 1  10.58621836843684  1.45912478807881  0.61266514681468
 1  12.34734227642764 -0.67269970947095  1.18661234453445
 1  12.53424557855786 -0.79955817641764 -0.59670266776678
 1  13.51840671067107  1.62584212921292 -0.83864276887689
 1  13.43715576037604  1.98281253255326  0.85575136453645
 1  14.67804923072307 -0.36222373837384 -0.25890408160816
 1  14.89395929582958  0.37557795329533  2.48860163316332
 1  14.39658693219322 -1.02636030793079  2.23615111321132
 1  15.83593062616261 -0.90874445754575  2.38776525422542
 1  16.07171830673067  1.93299329272927 -0.81394136883688
 1  16.00972500510051  1.92973250875087  1.20638896209621
 1  17.83726504160416  0.15976914751475  1.05065525222522
 1  17.26908443264326 -0.08668049884989 -0.66785816321632
 1  18.13279828692869  2.36289283708371 -1.10766375467547
 1  18.85435543164316  2.27580148704870  0.64346101660166
 1  19.99281184238424  0.08794164036404  0.50881423222322
 1  19.64944326232623  1.19127417701770 -2.28797092229223
 1  20.99290358035804 -0.07915971777178 -2.04202833623362
 1  19.24011673867387 -0.50177789618962 -1.74981305600560
 1  20.73114989358936  2.69700928002800  0.39228998259826
 1  21.99340708100810  1.59738632133213 -0.36869958495850
 1  21.21373802670267  3.02145963316332 -1.11966676297630
 1 -0.42215784088409 -3.45693844324432  2.25479382738274
 1 -1.32711239223922 -5.08698597229723  3.09431006760676
 1 -1.98591260456046 -3.39330780788079  3.65526968016802
 8 -11.85741411571157  3.56896169536954 -0.55711752545255
 1 -13.17632814431443  2.29205044514451 -1.01732233723372

