%nproc=4
%Mem=4GB
# td=(NStates=1) iop(3/107=0140000000,3/108=0140000000) iop(3/107=0140000000,3/108=0140000000) CAM-B3LYP/6-31G(d,p) 

TD

0 1
12 -5.62549405600560  1.20255512981298  0.16715532073207
 6 -4.94012439963996 -2.08449691299130 -0.45727259405941
 6 -3.45438422752275  1.16602688748875  2.79222459575958
 6 -6.31091988768877  4.52709597379738  0.67181739053905
 6 -8.00638640574057  1.18397924862486 -2.40955862936294
 7 -4.33720797409741 -0.25258345014501  1.05638697749775
 6 -4.24251777927793 -1.52970667226723  0.65544789438944
 6 -3.25640876537654 -2.33027633043304  1.49025338903890
 6 -2.88786195719572 -1.30329322022202  2.60753730983098
 6 -3.58311573897390 -0.06805943364336  2.19173375857586
 6 -3.42689572897290 -1.83633707510751  3.92521522092209
 6 -2.05775096829683 -2.61629903920392  0.67114241974197
 6 -0.88290993449345 -3.42538011861186  1.40265385338534
 6  0.31968706920692 -3.75514935563556  0.63019121382138
 8  0.64215427972797 -3.52383969756976 -0.50960719491949
 8  1.04785163086309 -4.52594221152115  1.36505111241124
 7 -5.05515633193319  2.57103648054806  1.48317854955496
 6 -4.01861395119512  2.36479390109011  2.41018162146215
 6 -3.80745024872487  3.55876437863786  3.14831538773877
 6 -4.62392294499450  4.53320484878488  2.63823309460946
 6 -5.35309141334133  3.95315341054105  1.65784187648765
 6 -2.93716908000800  3.65232260806081  4.37258144754475
 6 -4.64769129972997  6.01306872737274  2.96708621342134
 8 -3.98663871187119  6.46842473047305  3.88481238113811
 7 -6.77971177107711  2.69984988078808 -0.73932558885889
 6 -6.92954566936694  3.97642725992599 -0.30370205890589
 6 -7.91628681508151  4.53653037783778 -1.11186529602960
 6 -8.41295074837484  3.60108703860386 -2.05817476187619
 6 -7.71777066756676  2.36177218601860 -1.77272321882188
 6 -8.34889788068807  5.89852976237624 -1.16243575237524
 6 -9.44174853815382  3.81278167636764 -3.18485311811181
 6 -8.79293074677468  4.02549069526953 -4.56692309630963
 7 -6.30147856685669 -0.12046706440644 -1.15897098909891
 6 -7.32405193479348 -0.03278934753475 -2.10292450315031
 6 -7.68093560076008 -1.36091779537954 -2.61973449604960
 6 -6.62781233003300 -2.06520609240924 -2.11121728742874
 6 -5.86113452885288 -1.33865743084308 -1.21148727912791
 6 -8.67184264206421 -1.63806393239324 -3.70268716491649
 6 -6.20175384248425 -3.47927351125113 -2.03213676877688
 8 -6.50443483898390 -4.47867556595660 -2.74899116421642
 6 -5.04141270337034 -3.58436648924892 -0.96990931073107
 6 -5.32120959835984 -4.62880832193219  0.05181885368537
 8 -5.82541831343134 -4.48270727882788  1.12725908930893
 8 -5.15962566076608 -5.84104530093009 -0.44531767636764
 6 -5.39704726892689 -6.85167702100210  0.48553038283828
 6  2.36632760596060 -5.03317443764376  0.76240019441944
 6  3.43958849384939 -4.14748490939094  1.11278917871787
 6  4.04807419761976 -3.19265213531353  0.29249288428843
 6  3.84555889478948 -3.04921986328633 -1.23153265776578
 6  5.26759318511851 -2.38809385698570  0.77830162896290
 6  6.56061093239324 -2.67691061626163 -0.00706923952395
 6  7.58145346894690 -1.79268862436244  0.65760145064506
 6  9.07870869216922 -1.98604343794379 -0.03402118461846
 6  9.54937131883188 -3.37542818321832  0.32637918021802
 6  9.97567814691469 -0.94718495589559  0.48463097859786
 6  11.28410571297130 -0.68750835773577 -0.32281104730473
 6  12.18869655825582  0.39966459395940  0.17738458605861
 6  13.62033448924892  0.49672454235424 -0.56349111231123
 6  14.38838713771377 -0.78372777537754 -0.28117226812681
 6  14.28597453705370  1.75056122772277 -0.25325458025803
 6  15.53271746214621  2.07250527872787 -1.08891388638864
 6  16.15299788418842  3.40575532833283 -0.69660027322732
 6  17.40484573367337  3.74853269486949 -1.43186712191219
 6  17.15532812251225  3.93713860556056 -2.97325955015502
 6  17.99494890099010  5.07011227652765 -0.85335479437944
 1 -2.58166388918892  1.18542281768177  3.43264373277328
 1 -6.58795677447745  5.61267664806481  0.66670566226623
 1 -8.71670207740774  1.03005330823082 -3.07715319411941
 1 -3.60804186898690 -3.09525484088409  1.97297535833583
 1 -1.78161528542854 -0.99857751935194  2.42213348944895
 1 -3.01286106520652 -2.85116827802780  3.96720026402640
 1 -3.25588638133813 -1.30098000240024  4.73507553735373
 1 -4.53367587928793 -2.08451753265327  3.80290424092409
 1 -2.14695000870087 -3.17332684998500 -0.44099472327233
 1 -1.50208804120412 -1.73709282558256  0.34981310291029
 1 -0.53482891639164 -2.93756505210521  2.34264848354836
 1 -1.48218293989399 -4.24015114631463  1.63834563256326
 1 -1.90789090289029  3.29196872127213  4.22241815151515
 1 -3.09107009710971  4.74757196319632  4.78921517921792
 1 -3.48312130713071  3.11726272377238  5.17467247324733
 1 -5.10872393629363  6.69786398079808  2.17352267366737
 1 -10.09536867036704  2.81258191529153 -3.21190444214421
 1 -10.13616441434143  4.60739458355836 -2.92366265696570
 1 -9.55085488528853  4.10589900390039 -5.27281248354835
 1 -8.15193470287029  4.78478822422242 -4.50560051505151
 1 -8.49389923892389  3.07110646944694 -4.73531345614562
 1 -8.56620421002100 -0.86637718061806 -4.47273827212721
 1 -8.45932691569157 -2.45812921802180 -4.38411104810481
 1 -9.76484656415642 -1.68754557795780 -3.39723663036304
 1 -4.18259561696170 -3.75087991459146 -1.63560684758476
 1  2.52093322632263 -5.98114605760576  1.23449940684068
 1  2.25808655205521 -5.07259423552355 -0.31552500210021
 1  3.75140726302630 -4.17165644744474  2.20384539213921
 1  2.75643062976298 -2.99506512761276 -1.45760830183018
 1  4.48888350165017 -2.09861342064206 -1.54982745324532
 1  4.47820999499950 -3.80417414661466 -1.81467039293929
 1  5.11169121002100 -1.30929735373537  0.69339122262226
 1  5.41593012031203 -2.46818845124512  1.92925780608061
 1  6.72426995369537 -3.73046623872387  0.18428631263126
 1  6.31395155555556 -2.52378998799880 -1.23463405890589
 1  7.43837276857686 -0.63815714081408  0.55970321582158
 1  7.60782288518852 -2.04990157325733  1.80391477677768
 1  8.72001611091109 -2.01915019021902 -1.16664000210021
 1  8.88369288798880 -4.23229200060006 -0.25878967136714
 1  10.51797113791379 -3.58436263836384 -0.33513362686269
 1  9.64432349374938 -3.51919301080108  1.31118156085609
 1  9.47207635823582  0.03231895809581  0.59861522532253
 1  10.01123122062206 -0.91168770267027  1.50429996999700
 1  11.84466960826083 -1.71643167506751 -0.32991736493649
 1  11.15131121782178 -0.17940084498450 -1.52151348494850
 1  11.99064009750975  1.55644007320732 -0.09053860906091
 1  12.26691151445144  0.35396658805881  1.24271255145515
 1  13.25924272497250  0.73482791509151 -1.60956319501950
 1  14.56309564786478 -1.09810802350235  0.68495417541754
 1  13.82841841284128 -1.83854287058706 -0.83865018651865
 1  15.51297228562856 -0.78677187538754 -0.45865275777578
 1  13.57812600680068  2.65088970807081 -0.43654544224422
 1  14.65038173847385  1.84271456065607  0.75032224612461
 1  16.35056671247125  1.34220283298330 -0.98022451315132
 1  15.26909249264927  2.03549746254625 -2.15766714641464
 1  15.44140554515451  4.30250562856286 -0.86716871497150
 1  16.32308507860786  3.30415705710571  0.27483738413841
 1  18.13775745714571  2.85099659085909 -1.28134721432143
 1  16.24636535693569  4.67705423432343 -2.92777513731373
 1  17.98559448294830  4.51196070937094 -3.47371197629763
 1  17.13010321052105  3.08008907890789 -3.60319835443544
 1  18.55948199539954  4.74247546504651  0.22218388258826
 1  18.79368689098910  5.54520867306731 -1.38740565496550
 1  17.31826337723772  5.94048355145515 -0.86747080838084
 1 -5.23889919131913 -7.94236366946695  0.08793525582558
 1 -6.44741917221722 -6.72079916651665  0.85383889138914
 1 -4.61445961456146 -6.64105568116812  1.42877733433343
 8 -8.02174976657666  6.82035853665367 -0.41207899189919
 1 -9.22583088018802  5.98970461536154 -2.04050973377338

