%nproc=4
%Mem=2GB
# td=(NStates=1) iop(3/107=0140000000,3/108=0140000000) iop(3/107=0140000000,3/108=0140000000) CAM-B3LYP/6-31G(d,p) 

TD

0 1
12 -6.83143571567157  0.74750389448945  0.10636825632563
 6 -4.46891399789979 -1.91708012981298  0.44477475447545
 6 -4.43592540794079  2.92119375247525  0.88029091069107
 6 -9.13991669636964  2.96553057715772 -0.24157365906591
 6 -9.40449854745475 -1.85531856145615 -0.43842390109011
 7 -4.60547561946195  0.48243764146415  0.63899293139314
 6 -3.90953821942194 -0.72104181098110  0.65416597199720
 6 -2.43095651425143 -0.31037279647965  1.04141620392039
 6 -2.45214518031803  1.26502665146515  1.24972713521352
 6 -3.94459072197220  1.60267035223522  0.90674544924492
 6 -2.18555484118412  1.59685148104811  2.66645120792079
 6 -1.58690743914391 -0.72690525392539 -0.16915558925893
 6 -0.10148826712671 -0.76178788538854  0.14833390689069
 6  0.98559963916392 -0.81801903880388 -0.91701987578758
 8  1.06410647874787 -0.16176878937894 -1.97798878907891
 8  1.89725001160116 -1.72935323392339 -0.55537045954595
 7 -6.88276001820182  2.63470384038404  0.24585833373337
 6 -5.81641220212021  3.39672831603160  0.64602089828983
 6 -6.26569078427843  4.82789247404740  0.55692056065607
 6 -7.57982869626963  4.95097118761876  0.27647423072307
 6 -8.08667037093709  3.43295210361036  0.11048587998800
 6 -5.46403132343234  5.85196262676268  0.88214588258826
 6 -8.28474003530353  6.11521844194419 -0.02472294859486
 8 -7.85144906110611  7.21358297489749  0.07463532033203
 7 -8.88107166066607  0.62012287148715 -0.48025067416742
 6 -9.77487115951595  1.74186892219222 -0.48207926022602
 6 -11.21891852215222  1.38350822192219 -0.68458423962396
 6 -11.16384074157416  0.02046295069507 -0.82907376287629
 6 -9.73610527382738 -0.47676583978398 -0.74412648934893
 6 -12.38069484478448  2.30938713181318 -0.76425107590759
 6 -12.38192131263126 -0.87714127642764 -1.02984111781178
 6 -12.59639650175018 -0.97267943314331 -2.57045984068407
 7 -6.90786726962696 -1.45936849814981 -0.06647929242924
 6 -8.12314497609761 -2.44121411811181 -0.16706990499050
 6 -7.59890747584759 -3.76163348574857 -0.25653666376638
 6 -6.07111273247325 -3.66146530743074 -0.18558681928193
 6 -5.83905019371937 -2.21793060756076  0.02914909920992
 6 -8.47022554605461 -5.06006338413841 -0.34929774567457
 6 -4.84634083858386 -4.49643544164416  0.05279330503050
 8 -4.57581933063306 -5.65947648594859 -0.20071956535654
 6 -3.81124484988499 -3.30221078027803  0.41678632583258
 6 -3.23714722562256 -3.61053722922292  1.86097581058106
 8 -3.69029426952695 -3.75053178797880  2.90090876067607
 8 -1.89825150005000 -3.42237854315432  1.78559849904991
 6 -1.09249777187719 -3.84555964606461  2.89801422662266
 6  3.08776066886689 -1.98358353525353 -1.42701394549455
 6  4.26187995539554 -1.21350835193519 -1.07627315961596
 6  5.35059581498150 -0.74081095249525 -1.90629683128313
 6  5.33516750055005 -1.36109924462446 -3.33300028222822
 6  6.27351117571757  0.13316566366637 -1.37057361586159
 6  7.56536523052305 -0.71898768086809 -0.88671540884088
 6  8.76790935123512  0.24703033763376 -0.39063754425443
 6  9.89098218761876 -0.52228914921492 -0.02259056475648
 6  9.71409892619262 -1.38927774247425  1.05808017681768
 6  11.06654898489849  0.41332618681868  0.04306914531453
 6  12.46227149764976 -0.22458115091509  0.28191650285029
 6  13.60529207180718  0.73619089378938  0.31900479887989
 6  15.03849018421842 -0.02933965586559  0.54215887798780
 6  15.02806779487949 -0.51762404290429  2.14952487648765
 6  16.20126975537554  0.95783068506851  0.29325253055306
 6  17.51660113821382  0.39537476187619  0.04290741684168
 6  18.59305885328533  1.47858504970497 -0.21661180798080
 6  20.08751095219522  0.93773226802680 -0.24607469116912
 6  20.17067686898690  0.38471390169017 -1.78681447264727
 6  21.10950811971197  1.77917933593359  0.04264916901690
 1 -3.76638727702770  3.85330658165817  1.21929133083308
 1 -9.97151113361336  3.82569165426543 -0.09411304520452
 1 -10.02197468906891 -2.91804220352035 -0.22343516941694
 1 -1.94910742754275 -0.86558417621762  2.02917296559656
 1 -1.85034437303730  1.62235271147115  0.54738119151915
 1 -0.95693707740774  1.57306562096210  3.27515822692269
 1 -2.47892606650665  2.81620019641964  2.58772489028903
 1 -2.77998033053305  1.11210909620962  3.38262413151315
 1 -1.71753077337734 -1.57300857385739 -0.71212899969997
 1 -1.79166433543354  0.19759828692869 -1.11405119591959
 1  0.16911490979098  0.06776534323432  0.89250511571157
 1  0.12078835903590 -1.84411074487449  0.51460169226923
 1 -4.59734426482648  5.14312214011401  0.40611556925693
 1 -5.54232451305130  7.12925560146015  0.03226013211321
 1 -5.69559058725873  6.31940090109011  2.41432920522052
 1 -9.53724673877388  6.05248035723572  0.01608523272327
 1 -12.21280083368337 -1.93103397089709 -0.28577300450045
 1 -13.47406362136214 -0.56758035823582 -0.56833446984698
 1 -13.33243106620662 -2.20170228562856 -3.03633075017502
 1 -12.74586154995500 -0.15092767126713 -2.94624679417942
 1 -11.22394921932193 -1.46260957795780 -2.87102370977098
 1 -9.15642482578258 -4.98759531513151 -1.44356658465847
 1 -8.13463867846785 -5.76751676427643 -0.18276792869287
 1 -9.34368164816482 -5.20185214641464  0.48363297279728
 1 -2.87468705010501 -3.43802752765277 -0.16383469026903
 1  3.31530314571457 -3.06530380418042 -1.41991770887089
 1  2.41095538433843 -1.39897581258126 -2.70705094039404
 1  4.47928525622562 -0.73122587098710 -0.07134353275328
 1  4.38924198119812 -1.36683015551555 -3.78515863086309
 1  5.79445302370237 -0.69201787718772 -3.86779800370037
 1  5.51654548194819 -2.54529714401440 -3.27379156295630
 1  6.82396281818182  0.76553189058906 -2.15547816501650
 1  6.11859696909691  0.59586513431343 -0.25362962636264
 1  7.21135231413141 -1.48538673577358  0.00655237683768
 1  7.96670206860686 -1.54334312461246 -1.78978845474547
 1  8.75336746814681  1.00986158095810 -1.24539732503250
 1  8.25484398249825  0.75338052625263  0.58423413181318
 1  10.13577602470247 -1.21214865856586 -0.92000915851585
 1  9.08450069436944 -1.99952876857686  0.97095545634563
 1  10.52565863526353 -1.83103698489849  1.04660655205521
 1  9.41532474407441 -0.93667488988899  1.91382268736874
 1  11.13318695649565  1.20596335623562 -1.04856202780278
 1  10.59783953055305  1.07510638623862  0.90079395969597
 1  12.65312285448545 -0.92285472497250  1.22937662096210
 1  12.75238739273927 -1.01274949554956 -0.49311230873087
 1  13.72189705970597  1.68671821682168 -0.29062796739674
 1  13.61121316611661  1.50058430973097  1.07134292369237
 1  15.32644407020702 -0.72945046104611 -0.31913010421042
 1  15.11143104300430 -0.06689629412941  2.94006677967797
 1  13.97190446394639 -0.69450712261226  2.47022452055206
 1  16.09867690079008 -1.55710929402940  2.12477895559556
 1  16.19235036993699  1.46061605500550 -0.69726970167017
 1  16.54120815341534  1.65636517201720  0.93319164236424
 1  17.87043835893589 -0.22668949834984  0.95668585528553
 1  17.54482200640064 -0.26792862366237 -1.01283266066607
 1  18.34867987508751  2.18699524732473 -1.00333332163216
 1  18.31944194029403  1.94266817371737  0.61002767326733
 1  20.26615917711771  0.05590843704370  0.46027937873787
 1  20.16447476547654  1.08901395099510 -2.43968609380938
 1  21.25825011501150  0.00898909710971 -1.73708784218422
 1  19.72719544654466 -0.32789050745074 -1.68862693739374
 1  20.73008978757876  2.19396897599760  1.08738949254926
 1  22.01108884918492  1.09223580628063  0.16016330133013
 1  21.24234088698870  2.71093858105811 -0.91140593689369
 1  0.11980635553555 -3.18819156855686  2.63861220922092
 1 -0.65206488748875 -5.19657693139314  2.97554819141914
 1 -2.07539155245525 -3.19513799089909  4.07205135833583
 8 -12.32489086338634  3.60069486868687 -0.69732154585459
 1 -13.37745825732573  1.91060230033003 -1.61985259025903

