%nproc=4
%Mem=4GB
# td=(NStates=1) iop(3/107=0140000000,3/108=0140000000) iop(3/107=0140000000,3/108=0140000000) CAM-B3LYP/6-31G(d,p) 

TD

0 1
12 -5.61279278587859  1.15481035533553  0.17199580478048
 6 -5.03436382358236 -2.13484194749475 -0.40045691249125
 6 -3.42763155225523  1.17229751455145  2.71612698599860
 6 -6.39142793849385  4.64698796299630  0.79350955975598
 6 -8.08831459855986  1.19369021972197 -2.30910858435844
 7 -4.32062631593159 -0.26823501530153  1.04911625042504
 6 -4.29897342484248 -1.65097879947995  0.67598994859486
 6 -3.15674879937994 -2.32966626942694  1.41240560426043
 6 -2.86941011201120 -1.32185507640764  2.58608516461646
 6 -3.57855528292829 -0.06632926062606  2.15124971017102
 6 -3.53384642404240 -1.68934237563756  3.92542524192419
 6 -1.93455864906491 -2.65547295659566  0.53969927542754
 6 -0.91534317781778 -3.60653823442344  1.34337792579258
 6  0.28905400590059 -3.87438127882788  0.62437063176318
 8  0.56294635893589 -3.51536885048505 -0.51144737893789
 8  1.12582942864286 -4.68741835913591  1.31334594189419
 7 -5.02052286858686  2.66038541544154  1.48915914761476
 6 -4.01004309410941  2.41804922662266  2.44292489578958
 6 -3.78039754345435  3.64602310451045  3.15305586178618
 6 -4.65149570227023  4.62533406170617  2.61385065636564
 6 -5.34273037723772  3.95945404060406  1.49578567086709
 6 -2.72277764086409  3.81405878167817  4.29307349674968
 6 -4.81059759035904  5.95131255175518  3.07865737053705
 8 -4.05490553855386  6.53124101210121  3.96962086198620
 7 -6.90471427132713  2.68879877567757 -0.53040469676968
 6 -7.01036375117512  3.97352696989699 -0.28946063476348
 6 -7.88883406980698  4.57748447324732 -1.21906601610161
 6 -8.36946639993999  3.60283721362136 -2.05340428482848
 6 -7.81196008650865  2.41752776157616 -1.67260320682068
 6 -8.20814380528053  6.05555546494649 -1.26355586438644
 6 -9.38762312561256  3.95766616481648 -3.14896952975297
 6 -8.80713216691669  4.02117026322632 -4.66147255125513
 7 -6.33608202720272 -0.16462147984798 -1.13297838983898
 6 -7.35226475607561 -0.02663873247325 -2.08168237893789
 6 -7.54752225942594 -1.32814451805181 -2.69787230983098
 6 -6.65823537233723 -2.16952652445244 -2.14370053575358
 6 -5.93866228162816 -1.40142370747075 -1.12113824422442
 6 -8.49222468026803 -1.75116524252425 -3.82085898209821
 6 -6.27625129222922 -3.56162174607461 -1.96485004010401
 8 -6.59387378287829 -4.57776547494749 -2.61813807890789
 6 -5.08245680778078 -3.59251730433043 -0.93207552735274
 6 -5.36708418581858 -4.61232667376738  0.12614628642864
 8 -5.66632240384038 -4.50355936403640  1.29723608700870
 8 -5.16096579477948 -5.83322451885188 -0.47910105470547
 6 -5.57881544574458 -6.88418027132713  0.35787761756176
 6  2.35708668186819 -5.12570369056906  0.64967892229223
 6  3.46961149614962 -4.13930409130913  1.08313621342134
 6  4.02325171537154 -3.24910778087809  0.32877651265126
 6  3.77701204010401 -3.11820676197620 -1.12246175067507
 6  5.15778220402040 -2.36167121472147  0.76192999179918
 6  6.50438530983098 -2.65645857105711  0.01245271267127
 6  7.53885920952095 -1.77867722322232  0.59573526402640
 6  9.04167498879888 -1.98922375597560 -0.13804158665867
 6  9.56861324302430 -3.44601524192419 -0.00822428012801
 6  9.97551813091309 -0.84481471887189  0.39322183768377
 6  11.29739704210421 -0.75777538443844 -0.35844461066107
 6  12.19842753135313  0.40315494299430  0.21171801940194
 6  13.57268972477248  0.52425729562956 -0.50745550875088
 6  14.44000229922992 -0.75015441804180 -0.19874402530253
 6  14.28795473507351  1.81712788438844 -0.15141439623962
 6  15.54977916831683  2.05781380958096 -1.01030602560256
 6  16.17890047444745  3.46223097589759 -0.65305591879188
 6  17.40040528962896  3.83445128672867 -1.41359529472947
 6  17.23532612231223  3.94741963366337 -2.95151737593759
 6  17.93753315941594  5.17586285158516 -0.85242470137014
 1 -2.73861958475848  1.29664393979398  3.56034650305031
 1 -6.34691267006701  5.71881726212621  0.80907989968997
 1 -9.01233164036404  1.42586288918892 -3.11726720552055
 1 -3.56652771757176 -3.34678999439944  1.78646670747075
 1 -1.75934305820582 -1.30730839243924  2.85686696279628
 1 -3.13165294439444 -2.61416457765777  4.56252979697970
 1 -3.50794158685869 -0.61718162256226  4.59827185698570
 1 -4.53118563026303 -2.13389247014701  3.76941089158916
 1 -2.26573188688869 -3.25359487678768 -0.30144076787679
 1 -1.45752358475848 -1.73974309060906  0.25493361496150
 1 -0.43483891739174 -3.09677097269727  2.04629884858486
 1 -1.35158988058806 -4.46539367056706  1.85008680668067
 1 -1.65342545634563  3.40747027142714  3.99661557125713
 1 -2.77197818791879  4.80133733973397  4.50261651935194
 1 -3.00293328832883  3.23935493299330  5.21114612061206
 1 -5.41836490039004  6.64532872727273  2.40717603900390
 1 -10.03075220872087  3.10279093619362 -3.13189644134413
 1 -10.01482228012801  4.81013485758576 -3.09063935463546
 1 -9.36555635543554  3.99660807480748 -5.59026422872287
 1 -8.12158166756676  4.72528227362736 -4.62518247324732
 1 -8.02165201420142  3.31008036683668 -4.96028595339534
 1 -8.43798138773878 -0.97145768866887 -4.67068806710671
 1 -8.22263324632463 -2.85598900400040 -4.02248488548855
 1 -9.50803088258826 -2.07448427182718 -3.44500140684068
 1 -4.20502786018602 -3.90102492909291 -1.50230351725173
 1  2.65145627862786 -6.13443138613861  1.19837579447945
 1  2.25810655405541 -5.40959793589359 -0.48837228682868
 1  3.75336745904590 -4.36446572837284  2.18455346294630
 1  2.74474946164616 -3.14381000210021 -1.34473701470147
 1  3.98752336563656 -2.09804336363636 -1.46270874137414
 1  4.48264043804380 -3.89543327252725 -1.72290121602160
 1  4.98784882578258 -1.15765218921892  0.70103198669867
 1  5.17500602790279 -2.63323495589559  1.77021190149015
 1  6.83756128282828 -3.57826101820182  0.14039192319232
 1  6.57794795519552 -2.40465807480748 -1.02517311281128
 1  7.47327625892589 -0.50087341244124  0.51633887938794
 1  7.77438954185418 -1.85577216031603  1.67521190649065
 1  8.82063617291729 -1.60520879607961 -1.27079041714171
 1  8.90695521422142 -4.25498426982698 -0.25526931933193
 1  10.54664400520052 -3.58413261536154 -0.43961407490749
 1  9.88277733913391 -3.59293038453845  0.89873031573157
 1  9.64872402300230  0.17758348454845  0.35329069286929
 1  10.33265336283628 -1.06719325322532  1.34266380638064
 1  12.07473261456146 -1.63499353125313 -0.21099547274727
 1  11.28671475817582 -0.70644354925493 -1.40140147374737
 1  11.68934996849685  1.28326275547555  0.10595103990399
 1  12.22270709400940  0.33918510991099  1.28421670187019
 1  13.33846064676468  0.39720415271527 -1.65342758145815
 1  14.85730506880688 -0.73466167886789  0.87780346034604
 1  13.87704327532753 -1.64536355265527 -0.33506982848285
 1  15.43180416881688 -0.79482268046805 -0.84119101160116
 1  13.57535572977298  2.63945856495650 -0.38860064776478
 1  14.64452115241524  2.08112840204020  1.07719493339334
 1  16.44733638943895  1.35166377907791 -0.83129962066207
 1  15.23688927232723  2.31087500030003 -1.98032941264126
 1  15.43679508410841  4.17317269526953 -0.92024402250225
 1  16.11748451855186  3.46872351375138  0.47802770317032
 1  18.13765744714471  3.07563905510551 -1.05763484308431
 1  16.55155587598760  4.66199272817282 -3.33181554135414
 1  18.33326925042504  4.17023653695370 -3.37282188728873
 1  17.05986618681868  3.07942901290129 -3.48815685028503
 1  17.82989903710371  5.36831804930493  0.18348001220122
 1  18.84110163246325  5.14132828502850 -1.31336825122512
 1  17.27344889578958  6.06274577767777 -1.12930699199920
 1 -5.20247554895490 -7.85522495559556 -0.15295883358336
 1 -6.55771020132013 -6.93099018561856  0.59237274477448
 1 -5.06206437503750 -6.87472904850485  1.37663211981198
 8 -7.80292788438844  6.86159266006601 -0.50085786978698
 1 -9.14684298139814  6.21133677857786 -2.09271495429543

