%nproc=4
%Mem=4GB
# td=(NStates=1) iop(3/107=0140000000,3/108=0140000000) iop(3/107=0140000000,3/108=0140000000) CAM-B3LYP/6-31G(d,p) 

TD

0 1
12 -5.68539004560456  1.20949582388239  0.22072067726773
 6 -5.04645503270327 -2.07550601390139 -0.35821268806881
 6 -3.36305509460946  1.09656994179418  2.83639901320132
 6 -6.03190198589859  4.49728299249925  0.59758996779678
 6 -7.99934570167017  1.20324117481748 -2.38672634613461
 7 -4.37677193049305 -0.29905809760976  1.00322166096610
 6 -4.21363489098910 -1.56208991059106  0.58310065966597
 6 -3.19841296579658 -2.31390469326933  1.36023038673867
 6 -3.02894606560656 -1.36365925682568  2.61242779887989
 6 -3.58318574597460 -0.13480610831083  2.15391997719772
 6 -3.52312535193519 -1.81151459285929  4.05694839423942
 6 -1.98857405060506 -2.76872428172817  0.66104140964096
 6 -0.99339098259826 -3.71954953555356  1.41313490149015
 6  0.20559566006601 -3.96066990769077  0.67055525022502
 8  0.49349941424142 -3.53567088068807 -0.46366260046005
 8  1.10889773547355 -4.76854647194719  1.29324393169317
 7 -4.76764758105811  2.65589496639664  1.40581081278128
 6 -3.87613970377038  2.34508192989299  2.48072867616762
 6 -3.66270577427743  3.59853835603560  3.19930048624862
 6 -4.46662721542154  4.53859538783878  2.64002327362736
 6 -5.13047915211521  3.97400549574957  1.51418751105111
 6 -2.57698306140614  3.91905928172817  4.27551174057406
 6 -4.51727825842584  5.98814623512351  2.93926343114311
 8 -3.88493854185419  6.52659054705470  3.82227612751275
 7 -6.85138893879388  2.57362725852585 -0.72241389768977
 6 -6.86539925472547  3.88742836003600 -0.39379106780678
 6 -7.98325351175118  4.61069779457946 -1.14715882538254
 6 -8.41539099239924  3.64347127702770 -2.07877682208221
 6 -7.76140503100310  2.39210521932193 -1.80037598409841
 6 -8.27368035893589  6.05529543894389 -1.03125263406341
 6 -9.38663302660266  3.87432783098310 -3.18898353115312
 6 -8.66408786248625  4.07664581078108 -4.64730113411341
 7 -6.45169358835884 -0.09836485418542 -1.08407349934994
 6 -7.38670820042004 -0.03066913551355 -2.14452866356636
 6 -7.59585709290929 -1.36093779737974 -2.77901042364236
 6 -6.71357090589059 -2.19961953375338 -2.03552971867187
 6 -5.95820423582358 -1.36594015911591 -1.08493462386239
 6 -8.45644110191019 -1.65365549154916 -3.88159505570557
 6 -6.22306597369737 -3.51025660956096 -2.10662421752175
 8 -6.58635303080308 -4.50047774617462 -2.72443870897090
 6 -5.06592515461546 -3.45342339493949 -0.91597391719172
 6 -5.25877335473547 -4.61126656775678  0.08770244204420
 8 -5.78393416501650 -4.43123213131313  1.14504086748675
 8 -4.86062576077608 -5.81957315371537 -0.40443358795880
 6 -5.25369293349335 -6.88505035833583  0.47570940074007
 6  2.27161813501350 -4.99297041724172  0.56961091549155
 6  3.38914344934493 -4.05367552845285  0.97726562636264
 6  4.06779616981698 -3.24745761586159  0.17525116011601
 6  3.74240857975798 -3.07683262456246 -1.27548705320532
 6  5.14791121692169 -2.50548559615962  0.78992279107911
 6  6.51431630293029 -2.69099202440244  0.16588805620562
 6  7.65821114471447 -1.84959431493149  0.64603029352935
 6  9.05260608190819 -1.97064189778978  0.04037625512551
 6  9.54970135183518 -3.39556019641964  0.48935547784778
 6  9.85018559765976 -0.87165740314031  0.47233974947495
 6  11.34528183058306 -0.83194280118012 -0.13294206040604
 6  12.15394308290829  0.37828245574557  0.22546939453945
 6  13.41355381118112  0.42663753365337 -0.52451721492149
 6  14.35964426342634 -0.77196659925993 -0.26211036193619
 6  14.14115005460546  1.84766093769377 -0.20259951475148
 6  15.26463065346535  2.18660668886889 -1.15323031803180
 6  15.87459004340434  3.50918567136714 -0.78839945314531
 6  17.19037428652866  3.89638748034803 -1.44218815401540
 6  17.03762635233523  4.05678056975698 -2.95588781298130
 6  17.73758316441644  5.22319758505851 -0.89870932983298
 1 -2.81734745754575  1.19507378277828  3.78261873027303
 1 -6.33325130393039  5.58243362376238  0.83721271297130
 1 -8.75890629782978  1.13286358925893 -3.21290676947695
 1 -3.65233629842984 -3.05726104150415  1.91962002280228
 1 -2.01697882178218 -1.19081674327433  2.67061833793379
 1 -2.97652743184318 -2.67997115831583  4.42428597259726
 1 -3.46448724142414 -0.94503440784078  4.60664269406941
 1 -4.55663817551755 -2.03498257915792  3.87626157665767
 1 -2.39536485018502 -3.11601111841184 -0.23869449324933
 1 -1.35237306970697 -1.90458957525753  0.34624274587459
 1 -0.66672210571057 -3.45577687328733  2.47840205890589
 1 -1.42788751035103 -4.86369350055006  1.63686548454845
 1 -1.51643175697570  3.84243376777678  4.02571848154815
 1 -2.89338032813281  4.88149535553555  4.54942119981998
 1 -2.82904589958996  3.28152915041504  5.07679268526853
 1 -5.41307437133713  6.56282047644765  2.27078239963996
 1 -10.21777091059106  2.86520717781778 -3.18133138483848
 1 -9.97818861676168  4.69342318641864 -2.94820511121112
 1 -9.55045484528453  4.29335774977498 -5.43681888418842
 1 -7.85569507890789  4.91208095349535 -4.39478943394339
 1 -8.16989683868387  3.10911026982698 -4.68051797659766
 1 -8.25523311291129 -1.10888143104310 -4.81252225052505
 1 -8.39643062606261 -2.79977338243824 -4.03121575857586
 1 -9.45507558705871 -1.38448527192719 -3.53447035373537
 1 -4.28154551195120 -3.79932475907591 -1.43314660156016
 1  2.43379451245125 -5.96147409040904  0.77202315921592
 1  2.00823156655666 -4.78926590269027 -0.39385283488349
 1  3.68620074237424 -4.15234451625163  2.07227223482348
 1  2.75268025472547 -3.31477709880988 -1.64957749874988
 1  3.96074068736874 -2.06086964626463 -1.40629309980998
 1  4.43636581058106 -3.69137286648665 -1.90223914981498
 1  5.06597663856386 -1.28636506050605  0.77322920642064
 1  5.10260878817882 -2.67336896929693  1.94193907420742
 1  6.79771729842984 -3.82251544364436  0.04193207720772
 1  6.43665382578258 -2.42278988798880 -0.99271986748675
 1  7.51304023532353 -0.74793811891189  0.52661990749075
 1  7.72040414331433 -2.26882346544654  1.77639202450245
 1  8.83499760906091 -1.80368864406441 -1.11029436753675
 1  8.93101762046205 -3.93291206260626 -0.21453524592459
 1  10.58939828062806 -3.55073927602760  0.18384827132713
 1  9.33398245964596 -3.57004809630963  1.59281972467247
 1  9.49970912151215  0.12051777797780  0.32604796859686
 1  10.03626372387239 -1.15060159405941  1.56952649264927
 1  11.73335847714771 -1.90958098999900 -0.01671604480448
 1  11.24293037973798 -1.00843374827483 -1.30724205780578
 1  11.41030206370637  1.10043447264726  0.20520096489649
 1  12.25030985428543  0.24165535693569  1.27461574177418
 1  13.13616041674167  0.41600603290329 -1.53910614931493
 1  14.48891823012301 -0.55654386708671  0.82823850385038
 1  13.88670424142414 -1.68043706000600 -0.50354667616762
 1  15.25920690909091 -0.66278947714771 -0.72663955645564
 1  13.44807300150015  2.69423404250425 -0.49315110281028
 1  14.43262996329633  1.81466175537554  0.95463267716772
 1  16.11035269106911  1.50188880158016 -1.03360985168517
 1  14.94938052145215  2.11033494629463 -2.24646602630263
 1  15.23120452505251  4.23004838283828 -1.06582858095810
 1  16.18985175527553  3.48391503290329  0.33887378777878
 1  18.05310899229923  3.24416590779078 -1.12682176177618
 1  16.14570529092909  4.75201173007301 -3.15237759755976
 1  17.90537646114612  4.32759227252725 -3.55963056815682
 1  16.75998619881988  2.96795786578658 -3.34653268786879
 1  18.22988903610361  5.35446666416642  0.06804846904690
 1  18.66346386868687  5.42993714591459 -1.53640055445545
 1  16.94366591749175  6.05945544864487 -0.99868392969297
 1 -4.95078037943794 -7.77339677277728  0.02623908620862
 1 -6.27410184048405 -7.06788387498750  0.63723723122312
 1 -5.05938410701070 -6.67042861846185  1.55848030463046
 8 -7.75318290989099  6.89548604940494 -0.25601338533853
 1 -9.08636693379338  6.43524916981698 -1.52723840664066

