%nproc=4
%Mem=2GB
# td=(NStates=1) iop(3/107=0140000000,3/108=0140000000) iop(3/107=0140000000,3/108=0140000000) CAM-B3LYP/6-31G(d,p) 

TD

0 1
12 -6.65608818091809  0.52691183528353  0.21157877737774
 6 -4.54873197969797 -2.08971739353935  0.34032430943094
 6 -4.36090790619062  2.80933256635664  1.20661354295430
 6 -8.86854955965597  3.20468449254925 -0.06351585328533
 6 -9.34752284988499 -1.61739476907691 -0.47683774247425
 7 -4.74521959385939  0.33265266296630  0.73965299739974
 6 -4.03806107170717 -0.81305101190119  0.68820937633763
 6 -2.59075249384939 -0.60353211241124  1.00597265956596
 6 -2.43633359915992  0.94515466426643  1.26771893439344
 6 -3.99635589848985  1.32988307350735  0.99741451615161
 6 -1.92098838453845  1.19580137603760  2.69134369716972
 6 -1.74311305970597 -1.07794035743574 -0.24120279397940
 6 -0.17121523982398 -1.52976468306831  0.23021209470947
 6  0.78406948614861 -1.57896513341334 -0.94319249304930
 8  0.81186125422542 -0.84625723822382 -1.89407039723972
 8  1.94571485808581 -2.23170346894689 -0.48762368486849
 7 -6.53951569376938  2.53984435443544  0.36985073297330
 6 -5.48255881678168  3.19383802700270  0.62347864406441
 6 -5.77250146534653  4.73231291609161  0.69323419201920
 6 -7.00048076147615  4.89659575007501  0.26947353065307
 6 -7.60307201110111  3.50519932833283  0.06847167856786
 6 -4.77737265756576  5.71338876937694  1.10836850485048
 6 -7.69949151045105  6.11870879097910  0.08063758745875
 8 -7.05253917011701  7.28136975357536  0.35078293509351
 7 -8.73382693619362  0.84312517171717 -0.30869351845185
 6 -9.30173384578458  1.92566730203020 -0.45163621592159
 6 -10.83367999829983  1.64333420452045 -0.86416219741974
 6 -10.94891924942494  0.31665256965697 -0.91202205770577
 6 -9.63161482478248 -0.26022418561856 -0.53489556625663
 6 -11.91314809010901  2.70688688178818 -1.10524517531753
 6 -12.08925204570457 -0.50564412671267 -1.42526065976598
 6 -12.10780764286429 -0.65703786898690 -2.72951574627463
 7 -6.78397488038804 -1.29064162546255 -0.11525416991699
 6 -8.07583024462446 -2.07196719341934 -0.26273947194719
 6 -7.78264584968497 -3.52663998639864 -0.29408041814181
 6 -6.37215283648365 -3.62067122802280 -0.07762602320232
 6 -5.88754504320432 -2.15497431193119 -0.04220803650365
 6 -8.60228875237524 -4.75539291709171 -0.46708952485249
 6 -5.11620782528253 -4.45939173727373  0.02117014271427
 8 -4.97217896659666 -5.60971150945095 -0.18682817621762
 6 -3.99483320872087 -3.45883644284428  0.44034868206821
 6 -3.56688019891989 -3.71031720722072  1.92174188718872
 8 -3.98315355545555 -3.94918165296530  3.06862553235324
 8 -2.01074274917492 -3.66412271757176  1.79139907910791
 6 -1.14769329142914 -4.13414850495050  2.86035046024602
 6  2.99290118291829 -2.38364354125413 -1.61602284638464
 6  4.02030579797980 -1.47186418751875 -1.35408094039404
 6  5.22411316671667 -1.37548441984198 -1.99224542614261
 6  5.53804778857886 -2.12258539323932 -3.18003498569857
 6  6.16098992359236 -0.28673632653265 -1.68485504400440
 6  7.31519021302130 -0.99932571467147 -0.84241097839784
 6  8.38023058335834  0.11138677327733 -0.46864534503450
 6  9.62225531493149 -0.42178909920992  0.19933162746275
 6  9.40372788908891 -0.97497631233123  1.59711408020802
 6  10.83503583358336  0.62185703990399  0.28090292869287
 6  12.11217648814882  0.06118742594259  0.61238955015502
 6  13.33122466506651  1.09831710641064  0.61039393779378
 6  14.71808814401440  0.44029730783078  0.56055071717172
 6  15.16462145024502 -0.04965724622462  2.17008693269327
 6  15.81726135453545  1.46557145914591  0.19820302560256
 6  17.05698517661766  0.89826505090509 -0.03288016191619
 6  18.31217076447645  2.02265945714571 -0.45409555635564
 6  19.63222542364236  1.36488498329833 -0.52921300500050
 6  19.85085488678868  0.71028645894590 -1.93401919311931
 6  20.58679584848485  2.63494491249125 -0.39455455135514
 1 -3.78764940324032  3.45429668066807  1.33510291199120
 1 -9.70049403190319  3.93022210731073 -0.02925655955596
 1 -10.07511000260026 -2.22605300460046 -0.89169199509951
 1 -2.22960547734773 -0.96059367716772  2.12765281358136
 1 -1.70614995359536  1.18626910311031  0.35990244364436
 1 -0.96298768246825  0.81380969536954  3.00418112921292
 1 -1.88238641254125  2.32382095849585  3.32454857265727
 1 -2.48420075257526  0.72045993129313  3.18969483858386
 1 -2.47267628792879 -1.99515078807881 -1.07416520332033
 1 -1.78572374137414 -0.24628610151015 -1.09435922672267
 1  0.09090708900890 -0.81021245454546  0.87253311851185
 1 -0.26248996879688 -2.46162249604961  0.88583881598160
 1 -4.00225475587559  5.68690651855186  0.06463142084208
 1 -5.26214649524953  6.93828650455046  1.29000590669067
 1 -4.21158218641864  5.59196815781578  2.15134290659066
 1 -8.90903391749175  6.12741785098510 -0.00187656345635
 1 -11.98647820142014 -1.34265513301330 -0.61012543974398
 1 -12.97476369136914 -0.08925252545255 -1.20420805720572
 1 -12.91392921602160 -1.52078419381938 -2.73848096519652
 1 -12.55590255405541  0.23011043254325 -3.51941411091109
 1 -11.17341416581658 -0.70922423942394 -3.04933154055406
 1 -9.06543572687269 -5.03180973657366 -1.54488671667167
 1 -8.18854406900690 -5.36394640724073 -0.35449510141014
 1 -9.48381566156616 -4.86078804000400  0.06539114861486
 1 -2.97619720112011 -3.30924464936494 -0.43150145694570
 1  3.09171078647865 -3.39513678747875 -1.47227294439444
 1  2.44333862266227 -2.38328424342434 -2.47073730903090
 1  3.89749707740774 -0.65086783518352 -0.50452685108511
 1  5.09359241624162 -1.79528300080008 -4.11199131413141
 1  6.78844242264226 -2.14277295269527 -3.63628485238524
 1  5.34342817021702 -3.23699631393139 -3.06287047084709
 1  6.39294971687169  0.05605094249425 -2.93623624082408
 1  5.80148525792579  0.65518106590659 -1.17850211361136
 1  7.17781896079608 -1.49338753585359  0.40917263886389
 1  7.91623702210221 -1.68719751005100 -1.52363183908391
 1  8.82292442384238  0.75901649644964 -1.30958374367437
 1  7.90560905900590  0.92359754795480  0.48010371877188
 1  9.84079652675268 -1.26056350005000 -0.34142129972997
 1  9.14392663696370 -2.24905372107211  1.60915927672767
 1  10.25172124152415 -1.43505738693869  2.24471636303630
 1  8.90924413601360 -0.26182740514051  2.22934423952395
 1  10.97407104490449  0.83182594249425 -0.64647181878188
 1  10.39169891649165  1.67046592219222  0.79443332363236
 1  12.18425596779678 -0.09371181068107  1.68680236353635
 1  12.20218237223722 -0.86743496409641  0.35324232673267
 1  13.38489335933594  1.61257080208021 -0.20120902550255
 1  13.29164120892089  1.84100835213521  1.50441623102310
 1  14.93166459225923 -0.71305882188219 -0.23550174137414
 1  15.33213311321132  0.90065046054605  2.92562533553355
 1  14.36067334083408 -0.71474914681468  2.36418391649165
 1  15.98326535963596 -0.69346292939294  2.12836931463146
 1  15.52510364526453  1.96258625202520 -0.78339831453145
 1  15.92106613921392  2.55018455395540  0.97718604180418
 1  17.69440075517552  0.32325549614962  0.87849803650365
 1  17.06341386558656  0.08545671487149 -0.63003438083808
 1  17.73853886098610  2.35455200300030 -1.61869485778578
 1  18.15179517561756  2.84891879877988  0.28263493399340
 1  20.02024458565857  0.69944279047905  0.33254660546055
 1  19.89378769676967  1.38804385398540 -2.76902902810281
 1  20.74359864986499  0.26261445964596 -1.98086221962196
 1  19.07264999199920 -0.10766848524852 -2.26319439413941
 1  20.56314309290929  3.21072065116512  0.49245999959996
 1  21.41988972927293  2.24866144884488 -0.79943265826583
 1  20.52924957785778  3.22035952315232 -1.32499729602960
 1 -0.07424304940494 -4.16190894029403  2.36173452145214
 1 -1.38467814881488 -5.19130640434043  3.31009164576458
 1 -1.02977699099910 -3.76246472357236  3.58905305850585
 8 -11.61834020832083  3.94935973517352 -1.04532634633463
 1 -13.11568207970797  2.49445068516852 -1.53036364136414

