%nproc=4
%Mem=2GB
# td=(NStates=1) iop(3/107=0140000000,3/108=0140000000) iop(3/107=0140000000,3/108=0140000000) CAM-B3LYP/6-31G(d,p) 

TD

0 1
12 -6.65266783888389  0.56572571667167  0.12538015751575
 6 -4.49862696919692 -2.10039846164617  0.46179645664566
 6 -4.44098591399140  2.73909554265427  0.95385826742674
 6 -8.97152985768577  3.11157518161816 -0.13679318101810
 6 -9.42571066866687 -1.73210624022402 -0.83246330503050
 7 -4.78937400930093  0.39174857255726  0.65388442054205
 6 -4.07440470607061 -0.80697040384038  0.62062261766177
 6 -2.51472489108911 -0.58899065826583  0.98915097739774
 6 -2.56045601140114  0.91665181398140  1.31662382488249
 6 -3.94433069596960  1.46499658485849  1.13182795749575
 6 -2.42234852055206  1.08468026392639  2.93655821862186
 6 -1.63653240164016 -0.93699626302630 -0.33264193789379
 6 -0.14826294459446 -1.35940764736474  0.49119819331933
 6  0.75825690489049 -1.38312554945495 -0.75985415921592
 8  0.87243731183118 -0.87503011551155 -1.76615760596060
 8  1.83417370397040 -2.24885518411841 -0.26265118761876
 7 -6.57182892509251  2.54695506550655  0.28658240614061
 6 -5.56366692759276  3.33525216841684  0.67246354255426
 6 -5.79329354455446  4.68741842664266  0.64086895549555
 6 -7.04921563496350  4.93601969246925  0.23446002930293
 6 -7.64796650055006  3.53234204260426  0.13116794819482
 6 -4.92627754805480  5.68620605110511  1.16803447144714
 6 -7.70700226152615  6.16840376047605  0.00491001470147
 8 -7.48331224742474  7.25833745034503  0.33424128092809
 7 -8.70630418391839  0.75123598279828 -0.37249989908991
 6 -9.34143781618162  1.82924766006601 -0.38459951225123
 6 -10.88514514481448  1.57375724682468 -0.76012179337934
 6 -10.91584594209421  0.28113901830183 -1.08772962846285
 6 -9.60168183148315 -0.30632879607961 -0.86014809150915
 6 -11.86937371267127  2.63076927002700 -1.15834048484849
 6 -12.11521464196420 -0.25254881718172 -1.50019815351535
 6 -12.26937379947995 -0.68050021522152 -3.14948774347435
 7 -6.95805228812881 -1.34753731503150  0.00293764926493
 6 -8.07436009760976 -2.18275827252725 -0.50626382438244
 6 -7.66498408350835 -3.55725304770477 -0.58807981808181
 6 -6.26111173237324 -3.69884904580458 -0.13114137473747
 6 -5.85580186888689 -2.31242005650565 -0.09075289098910
 6 -8.76531505500550 -4.45600297809781 -0.93667648354836
 6 -5.15354155865587 -4.51760755885589 -0.02487446174617
 8 -4.81410315901590 -5.62758329662966 -0.14628412181218
 6 -3.95575930133013 -3.49908046724673  0.57487213441344
 6 -3.50331384228423 -3.92811898739874  1.84229394239424
 8 -4.17146238633863 -4.23325005980598  2.83531220102010
 8 -2.13020469536954 -3.64282058735874  1.97798773797380
 6 -1.40991951405140 -3.85246033613361  3.23497792299230
 6  2.93944583738374 -2.32029720662066 -1.06944818891889
 6  3.94300806820682 -1.27849485058506 -0.67490302260226
 6  5.18279903530353 -1.31209808120812 -1.44136033763376
 6  5.24072805660566 -1.99197233193319 -2.75714269646965
 6  6.09391321592159 -0.10436808970897 -1.15983254175418
 6  7.49464815881588 -0.79356513861386 -0.22482922022202
 6  8.58180074037404  0.35969160376038 -0.24787326782678
 6  9.89422251165117 -0.30310723102310  0.20901259555956
 6  9.79807732403240 -1.09640845554555  1.63674804360436
 6  11.09394172417242  0.61496635083508  0.35728056645665
 6  12.39254452495249  0.05542684988499  0.18747705890589
 6  13.51381292389239  1.11811908660866  0.33662656105611
 6  14.90660699589959  0.45474875297530  0.41610627272727
 6  15.11544653275327 -0.33980626112611  1.67895781978198
 6  16.08623825222522  1.39249415141514  0.17012021732173
 6  17.42838231633163  1.04498972337234 -0.14160103400340
 6  18.48414796219622  1.88425561676168 -0.36025617241724
 6  19.88898109920992  1.10660915571557 -0.82074215791579
 6  19.52177197849785  0.82486791709171 -2.40886667786779
 6  21.01205837473747  2.32457387538754 -0.71858695459546
 1 -3.82952359065907  3.37423867486749  1.44458386008601
 1 -9.66514049654966  3.83974305940594 -0.43884751865187
 1 -10.29076156775678 -2.36436683598360 -1.18546137203720
 1 -2.50990350715071 -1.24436205400540  1.94030407870787
 1 -1.70228956755676  1.45394587078708  1.12758921232123
 1 -1.46669805350535  0.79233754815482  3.30942165326533
 1 -2.30175834973497  2.24007258365837  3.17020313811381
 1 -3.24901723422342  0.88474635993599  3.77652352145215
 1 -2.22252127242724 -1.87804907790779 -1.02994078087809
 1 -1.62169733873387 -0.18908038093809 -1.09031882268227
 1  0.20343834213421 -0.27837927122712  0.97844370957096
 1 -0.04895861566157 -2.33832016581658  1.09925015711571
 1 -4.08047257765777  5.45483331123112  0.70129508720872
 1 -5.21543182378238  6.65334801070107  1.01312821892189
 1 -4.68380940914091  5.84981394239424  2.20159793209321
 1 -8.53905691979198  5.98876398559856 -0.21388776457646
 1 -12.72086163976398 -0.91391225872587 -0.76432085928593
 1 -12.93832004700470  0.67082348214822 -1.56695433183318
 1 -13.11361918501850 -1.55576769216922 -3.37427454455446
 1 -12.69254621842184  0.21477889938994 -3.63777594709471
 1 -11.30384720912091 -1.18809212621262 -3.56071267866787
 1 -8.97520670397040 -4.36044259985999 -1.92800502850285
 1 -8.66153136773677 -5.44276428902890 -0.91782143404340
 1 -9.24457173717372 -4.40773273447345 -0.06561195169517
 1 -3.06620620202020 -3.73582730763076 -0.23820212701270
 1  3.57022863826383 -3.60471774557456 -1.10684640174017
 1  2.54577886668667 -2.01865778077808 -2.21593182848285
 1  3.73391071877188 -0.85897864626463  0.25547914951495
 1  4.79570262726273 -1.28099157165717 -3.75193530853085
 1  6.54756833523352 -2.22610128552855 -3.03450467436744
 1  4.87324115151515 -3.01716433073307 -2.59875405920592
 1  6.43421384328433  0.18193353075308 -2.55715833303330
 1  5.89309441884188  1.25928147594759 -0.41639590299030
 1  6.74900607950795 -1.01228942604260  1.34075579717972
 1  8.10946634503450 -1.98939773007301 -0.63899337523752
 1  8.59155128652865  0.59531012581258 -1.19211199649965
 1  8.20524902300230  1.27182237043704  0.73674938333833
 1  10.14464691179118 -1.05813325702570 -0.75046220382038
 1  9.08727097139714 -2.01834064976498  1.96193455425543
 1  10.66804287368737 -1.68702258345835  1.66100799219922
 1  9.31873508510851 -0.10526174857486  2.19044034913491
 1  11.12142578037804  1.54440720062006 -0.67718489008901
 1  10.98803855045504  1.23652252785278  1.26009989028903
 1  12.72884042624262 -0.85725816531653  0.95213889718972
 1  12.51429358335834 -0.68286650725072 -0.73182618011801
 1  13.51442631263126  1.90166971197120 -0.27135604020402
 1  13.24278632343234  1.38864311561156  1.33232902230223
 1  14.81639306510651 -0.30651816781678 -0.21848003920392
 1  15.80148004790479  0.40037043254325  2.35442821582158
 1  14.02536981048105 -0.62593026492649  1.99477697579758
 1  15.61310834393439 -1.59808339143914  1.29771624932493
 1  15.80799193409341  2.01099109250925 -0.76065604030403
 1  16.21323535613561  1.79065860136014  1.04934325752575
 1  17.77532884798480  0.47673084368437  0.40674086078608
 1  17.15277280148015  0.35955412461246 -0.85814719211921
 1  18.36161116821682  2.58679522732273 -0.94089707800780
 1  18.76110610671067  2.06126003290329  0.72388905940594
 1  19.78242080328033  0.21911475767577 -0.23418006720672
 1  19.30499881788178  1.83695874547455 -2.90662278747875
 1  20.32743703370337  0.47475567376738 -2.63085721912191
 1  18.79392211921192  0.23317559915992 -2.77094516921692
 1  21.02534931353135  2.52776235533553  0.46668742234223
 1  21.98880662096210  1.79078566126613 -1.23028574357436
 1  20.85739239213921  3.36880436763676 -1.27184198049805
 1 -0.51569719481948 -4.07040979037904  2.75650399839984
 1 -1.83831351235123 -4.66642391609161  3.68392902950295
 1 -1.13164717801780 -2.74000247734773  3.70580473367337
 8 -11.79413778807881  3.69959475867587 -0.95367718141814
 1 -12.59491000250025  2.42821406150615 -1.45706631163116

