%nproc=4
%Mem=2GB
# td=(NStates=1) iop(3/107=0140000000,3/108=0140000000) iop(3/107=0140000000,3/108=0140000000) CAM-B3LYP/6-31G(d,p) 

TD

0 1
12 -6.65610818291829  0.57352649674967  0.05001262076208
 6 -4.50768787528753 -2.08749717151715  0.36925720272027
 6 -4.22247406280628  2.79381101420142  0.89145202680268
 6 -8.86472917761776  3.36031005510551 -0.37673717541754
 6 -9.33474157175718 -1.49530255985599 -0.76591665036504
 7 -4.72855792769277  0.40792018971897  0.48938797089709
 6 -3.93615088068807 -0.79950965776578  0.56581713711371
 6 -2.47829124772477 -0.65698745794579  0.94521658395840
 6 -2.43567353315331  0.84420456925693  1.18722088458846
 6 -3.81305756865687  1.49398948414841  0.80515529022902
 6 -2.04350063576358  1.29866166206621  2.60627519031903
 6 -1.62672142054205 -1.15214777817782 -0.28464713841384
 6 -0.06334445274527 -1.11631333793379  0.37457653115312
 6  0.80398147734773 -1.40556779367937 -0.74278245204521
 8  0.81859192729273 -1.14885749824983 -1.95719670987099
 8  1.85391567816782 -2.30313061166117 -0.18426334883488
 7 -6.51835357755776  2.46822719271927  0.33500724862486
 6 -5.48074863576358  3.21567021022102  0.66385268146815
 6 -5.75851006620662  4.75625531033103  0.73709857845785
 6 -6.92119283268327  4.84722081258126  0.39241582488249
 6 -7.58768047194719  3.50608941734173  0.12078691009101
 6 -4.61788670897090  5.87088451895190  0.96048371637164
 6 -7.76055761706171  6.07216413651365  0.29669919361936
 8 -7.21110502670267  7.15238685528553  0.47913577037704
 7 -8.60540409390939  0.80199105830583 -0.42993564266427
 6 -9.47604127652765  1.94736947224723 -0.56425747804780
 6 -10.79690632093209  1.67242711381138 -0.74998077927793
 6 -10.87297165466547  0.34597550195019 -0.94405526102610
 6 -9.57307897119712 -0.23740190339034 -0.86012808950895
 6 -11.86963373867387  2.63320951405141 -0.91577622842284
 6 -12.17407052755276 -0.37914147644765 -1.33408154185419
 6 -12.41767862996300 -0.72789495469547 -2.81156395109511
 7 -6.88678516141614 -1.36680924222422 -0.27681032553255
 6 -8.13244590619062 -2.22054205090509 -0.57366056405641
 6 -7.64447203230323 -3.47879520192019 -0.64090510061006
 6 -6.35023064426443 -3.54749391029103 -0.17896615721572
 6 -5.97049333803380 -2.26500531503150  0.02446863116312
 6 -8.62454097759776 -4.71283866166617 -0.82544536043604
 6 -5.28480468496850 -4.43050884898490 -0.04608658295830
 8 -5.02451420012001 -5.59042958125813 -0.21037053045305
 6 -4.09929365476548 -3.52875343454345  0.42500714791479
 6 -3.49297280818082 -3.82692886838684  1.90016972997300
 8 -4.06179141924192 -4.12221895669567  2.98612728252825
 8 -2.11079275417542 -3.82890919621962  1.66216615581558
 6 -1.41156967906791 -4.24824991509151  2.88016244144414
 6  3.00584247704771 -2.67546272317232 -0.98645989008901
 6  4.01415518291829 -1.48061506260626 -0.65596112841284
 6  5.10532128752875 -1.36377324872487 -1.37133333493349
 6  5.47358134193419 -1.97982111681168 -2.67346432863286
 6  6.15888971357136 -0.19249690259026 -0.99607616611661
 6  7.38518721272127 -0.77553333543354 -0.22349908720872
 6  8.33335589588959  0.31401703630363  0.12212373187319
 6  9.80779386878688 -0.35717263756376  0.61882357665767
 6  9.61554907120712 -0.94974378907891  1.88613298209821
 6  10.92083441344134  0.62648750295030  0.27996283468347
 6  12.25694096459646  0.00718202540254  0.59695800700070
 6  13.44144568716872  1.04635190989099  0.42168506690669
 6  14.82463879907991  0.44708798689869  0.43538820092009
 6  15.07842283038304 -0.18774105460546  1.78057798179818
 6  15.87382701110111  1.42220712271227 -0.00457725242524
 6  17.25590506860686  1.01944716911691 -0.13506037993799
 6  18.23096264366437  2.09674686588659 -0.56248639543954
 6  19.65221742284228  1.47806630143014 -0.86761684538454
 6  19.83534333563356  0.56284171447145 -2.33845963716372
 6  20.62135930483048  2.65980739873987 -1.05623071897190
 1 -3.38827946624662  3.50553180418042  0.85342474417442
 1 -9.44575855835584  4.26896598169817 -0.71903553745375
 1 -10.07682017361736 -2.28974937423742 -1.25894872077208
 1 -2.35758827562756 -1.10303792159216  1.81169121742174
 1 -1.86145548414841  1.34075455165517  0.32209866326633
 1 -0.82614399809981  1.16147446184619  2.86363707480748
 1 -2.17406558045805  2.46068464486449  2.92845896369637
 1 -2.97281961446145  1.16339422472247  3.50563643274327
 1 -1.63992301260126 -2.42815408840884 -0.12358014481448
 1 -1.55316048504850 -0.54206567946795 -1.16727651845185
 1 -0.10204220592059 -0.04220565386539  0.86974283948395
 1 -0.06158987878788 -1.91946828062806  1.37381761386139
 1 -3.52839737013701  6.27627545544554  0.16259121682168
 1 -5.53757403800380  6.66726940284028  0.99676658275828
 1 -4.06884791299130  5.45950491149115  1.92760053235324
 1 -8.96455947004701  5.94438954815482  0.23371699589959
 1 -12.05379493309331 -1.39199006650665 -0.49709413661366
 1 -13.12894910991099 -0.29034263446345 -0.60712834923492
 1 -13.42153997709771 -1.78087020242024 -3.23470058715871
 1 -13.00023698749875  0.45690311181118 -3.52150431993199
 1 -11.44915173957396 -1.09499281628163 -3.14936154355436
 1 -9.16414559785979 -4.50085664126413 -1.67873010101010
 1 -7.91645686028603 -5.52642265486549 -0.87648730063006
 1 -9.42196947694770 -5.19496145734573  0.01709631913191
 1 -3.28363794519452 -3.61130485538554 -0.00270857765777
 1  3.42995461086109 -3.62177945174517 -0.77517323442344
 1  2.76753104190419 -2.46502241724172 -2.23995423072307
 1  3.94573190089009 -1.17733048144814  0.34832843444344
 1  4.68219127612761 -1.76769024152415 -3.23637375237524
 1  6.70746432483248 -1.61602027742774 -3.32794401830183
 1  5.11374520192019 -3.41761437573757 -2.46678086188619
 1  6.34522494439444  0.28657399479948 -1.71543416061606
 1  5.72721783118312  0.55692123992399 -0.22096636003600
 1  7.40513169206921 -1.23780197729773  0.94711643324332
 1  7.42930832923292 -1.71614040434043 -0.78958843474347
 1  8.86096822822282  0.76626722152215 -0.97822060736074
 1  8.04196269436944  0.62398758695870  0.77995370377038
 1  10.21601404850485 -1.26962440614061  0.21419426182618
 1  8.91845408970897 -1.76973578927893  1.97837619841984
 1  10.35964203360336 -1.68188206940694  2.05813770517052
 1  9.73000621222122 -0.13071429382938  2.80751205630563
 1  10.70862450025002  0.86799955985599 -0.53992116371637
 1  10.69887963456346  1.63362223782378  1.31620550085008
 1  12.02548009020902 -0.31254369386939  1.63419710301030
 1  12.28538069206921 -0.61330955155516 -0.24808780628063
 1  13.34865973597360  1.44845439043904 -0.54611351595160
 1  13.26805885068507  1.57755200650065  1.35101089048905
 1  14.77890931673167 -0.48676619261926 -0.14248243944394
 1  15.09029892979298  0.71512190769077  3.00334310731073
 1  14.48421569506951 -0.79459713161316  1.83167066516652
 1  15.94853188628863 -0.62087567066707  1.66989346704671
 1  15.35491662656266  1.87774776817682 -0.98267824252425
 1  15.96781081368137  2.27435697119712  0.83536185938594
 1  17.49017033213321  0.54533770437044  0.81318150485048
 1  17.22225975017502  0.28567673687369 -1.08355973337334
 1  18.01092609970997  2.82884943274327 -1.67222021032103
 1  18.31600159625963  2.73279718661866  0.16447311781178
 1  20.24298685988599  0.81592443864386 -0.01359800900090
 1  19.72543086108611  1.03011806140614 -3.22122424762476
 1  20.68135242524252 -0.27385918771877 -2.33052718611861
 1  18.94690741774178 -0.23581129952995 -2.20835891059106
 1  20.66617339593959  3.25802538163816 -0.22377162356236
 1  21.62053979427943  2.05073165586559 -1.38293100810081
 1  20.44978163106310  3.11029851705171 -2.00125492179218
 1 -0.15509113421342 -3.97036978637864  2.46951529952995
 1 -1.29985966696670 -5.49190646434644  2.67208784538454
 1 -2.02189620292029 -3.83452192929293  4.15890004320432
 8 -11.80135851015102  3.85901070027003 -0.77985979967997
 1 -12.81639215071507  2.46080732083208 -0.63303390839084

