%nproc=4
%Mem=2GB
# td=(NStates=1) iop(3/107=0140000000,3/108=0140000000) iop(3/107=0140000000,3/108=0140000000) CAM-B3LYP/6-31G(d,p) 

TD

0 1
12 -6.60381295339534  0.70460960506051 -0.01992437293729
 6 -4.53382048854886 -2.09942836463646  0.47584786178618
 6 -4.31032284768477  2.64193582668267  0.87088997059706
 6 -8.93153585828583  3.22937696179618 -0.36570607230723
 6 -9.26983508110811 -1.61512454205421 -0.62735279397940
 7 -4.76017108900890  0.34090348804880  0.46736576867687
 6 -3.89756702230223 -0.78554826162616  0.48178873427343
 6 -2.50110352895289 -0.50668242744274  0.91347340964096
 6 -2.39310927672767  1.01778192699270  1.11210337283728
 6 -3.94528079097910  1.43015310051005  0.85413018771877
 6 -1.81226751245125  1.22027382328233  2.69178374117412
 6 -1.72510125852585 -1.11298386178618 -0.33769244294429
 6 -0.28838695699570 -1.56741844844484  0.23814288778878
 6  0.74476555575558 -1.68204544144414 -0.89747792159216
 8  0.92081214931493 -1.23889650215021 -2.05459644984498
 8  1.77595788238824 -2.32528282688269 -0.42523744624462
 7 -6.64956669886989  2.63596396639664  0.21339508740874
 6 -5.52996355725573  3.33538218141814  0.66782307850785
 6 -5.80161437663766  4.74102378717872  0.61124599319932
 6 -7.05280599399940  4.90526661716172  0.21740832413241
 6 -7.72191389528953  3.55010381878188  0.01120595199520
 6 -4.91832675297530  5.77960539103910  1.03909157715772
 6 -7.94218577987799  6.08647556765677  0.12808233193319
 8 -7.50298421462146  7.17152876947695  0.46392424922492
 7 -8.76248980248025  0.72545340454045 -0.20650329942994
 6 -9.54452812521252  1.91411614691469 -0.39825087738774
 6 -10.88852548284829  1.60334020512051 -0.69294507570757
 6 -10.96027038453845  0.24089499389939 -0.67284814031403
 6 -9.63264492779278 -0.24027219041904 -0.47409948664866
 6 -12.02548932423242  2.53933012611261 -0.71619627042704
 6 -12.17206032653265 -0.50351391369137 -1.02343047674767
 6 -12.63299016111611 -0.73370553575358 -2.68778157285729
 7 -6.84465094799480 -1.37858041934193 -0.13395604010401
 6 -8.08790145174517 -2.15942593929393 -0.45372857085709
 6 -7.59856744184418 -3.53915123752375 -0.33829483958396
 6 -6.27094271547155 -3.55345450635063 -0.10804906550655
 6 -5.82263855255526 -2.06751556605661  0.24405058935894
 6 -8.29923844734473 -4.77995537333733 -0.67928074397440
 6 -5.15416162066207 -4.44882068016802  0.13600162586259
 8 -4.94882663136314 -5.59791032933293  0.07811831843184
 6 -4.06567029242924 -3.40163072227223  0.47146179337934
 6 -3.36765027592759 -3.83333950945095  1.84311402440244
 8 -3.91933717381738 -4.08993572837284  2.86316498629863
 8 -2.18327000190019 -3.72078838413841  1.78717865706571
 6 -1.47413593569357 -3.92946803690369  3.02173659885989
 6  3.11536342914291 -2.37461263816382 -1.29841108520852
 6  4.15089885728573 -1.41617861896190 -0.94000953325333
 6  4.96922767816782 -0.98671554295430 -1.83166936853685
 6  5.23778776257626 -1.44693782848285 -3.18953593579358
 6  6.13368719331933 -0.10485813871387 -1.41569812831283
 6  7.26035472947295 -0.81631741384138 -0.78441517881788
 6  8.38327088738874  0.23795943054305 -0.50331881238124
 6  9.59216230563056 -0.36092301260126 -0.13301160686069
 6  9.39721723802380 -1.04332314701470  1.00300466926693
 6  10.91630396039604  0.68837369156916 -0.13470863246325
 6  12.27036230673067 -0.02653134593459  0.14972328352835
 6  13.48361990459046  1.00877815251525  0.19496239463946
 6  14.85065140034003  0.31790506860686  0.58033269536954
 6  14.87776276437644 -0.29050133063306  2.02396232023202
 6  16.00678030643065  1.36644154615462  0.47869107440744
 6  17.42430190829083  0.75810103450345  0.33392651875188
 6  18.52258180558056  2.00912810401040 -0.23415356215622
 6  20.03993619471947  1.29965846064606 -0.37987807150715
 6  20.30194999629963  0.51296672697270 -1.49887567876788
 6  20.95850301920192  2.61201261926193 -0.44001909780978
 1 -3.38096873517352  3.49900115111511  1.30782018371837
 1 -9.64765874837484  4.01274035913591 -0.55758939283928
 1 -10.01814430603060 -2.45928632793279 -0.72648547444744
 1 -2.03628614541454 -1.24453207100710  1.67122717101710
 1 -1.67961730033003  1.51250172637264  0.29740619401940
 1 -0.35264664836484  1.26663497789779  2.88073878497850
 1 -2.26173434733473  2.30468904530453  2.77622374017402
 1 -2.26580891339134  0.41966985228523  3.28000386948695
 1 -2.54701372167217 -1.95204647764776 -0.93862164896490
 1 -1.82674784378438 -0.19100057295730 -1.14143393419342
 1  0.18205620392039 -0.78735016831683  0.73804967016702
 1 -0.34735845564557 -2.58367470127013  0.64917514961496
 1 -4.41119564996500  5.98621644954495 -0.02139718201820
 1 -5.57625790639064  6.83247592349235  1.22789969606961
 1 -4.05060608880888  5.28699766076608  1.53080085238524
 1 -8.83947696179618  6.23536864606461 -0.13659003480348
 1 -12.34394394799480 -1.33819468696870 -0.63199762696270
 1 -13.17064327932793 -0.01920552075207 -0.47724536093609
 1 -13.87613543664366 -1.75346746214621 -3.06737385448545
 1 -13.16980394419442  0.55935335683568 -3.68238040754075
 1 -11.56091291569157 -1.00948426542654 -3.29759636703670
 1 -8.53654283758376 -5.02914947054705 -1.88140036803680
 1 -7.46396161076108 -5.51789180178018 -0.40919057095710
 1 -9.46396367636764 -5.00193215441544 -0.18139352985298
 1 -3.29802938433843 -3.55853957885789 -0.05910421722172
 1  3.44996661206121 -3.41635890969097 -1.08249396649665
 1  3.01672596139614 -2.33539945494549 -2.33876411171117
 1  4.07499482718272 -0.79434218261826  0.09884348594859
 1  4.80732378937894 -0.67434090659066 -4.13292340734073
 1  6.85297887628763 -1.42063073847385 -3.18927015091509
 1  4.89001282868287 -2.67410002430243 -3.18072225602560
 1  6.64487490939094  0.72070740814081 -1.95078769596960
 1  5.81611672107211  0.55811135893589 -0.85102936633663
 1  6.80583176207621 -1.15322351945194  0.19120084168417
 1  7.75504090249025 -1.20387917821782 -1.96179565546555
 1  8.71013314471447  0.95688628342834 -1.15451823712371
 1  8.03786228432843  0.90557574577458  0.20862657105711
 1  10.10216266336634 -0.99428687238724 -0.90150730833083
 1  8.49997224152415 -1.71785060076008  1.24922328312831
 1  10.36610267966797 -1.58441232243224  1.12182407380738
 1  9.36014922652265 -0.22043326572657  1.67943924902490
 1  10.91023466126613  1.06301906180618 -1.30457762936294
 1  10.85105485208521  1.40231910751075  0.67154103440344
 1  12.26272381458146 -0.64448688818882  1.39862354565457
 1  12.58952110611061 -0.89421764236424 -0.79731272877288
 1  13.73478834883488  1.72917246224622 -0.65158406300630
 1  13.33634567936794  1.84257850915092  1.01130692009201
 1  14.89372079787979 -0.53694121012101 -0.05124331553155
 1  14.26414631453145  0.03256365186519  2.92124489748975
 1  14.05039231273127 -1.19957762966297  1.87491498959896
 1  15.91835886898690 -0.93664724782478  2.47204368206821
 1  15.89604073897390  2.07560755415542 -0.76709668436844
 1  15.70942497509751  2.41881141664166  1.22384070727073
 1  17.80008132323232  0.25840901150115  1.13254344104410
 1  17.35070259445945  0.05219338853885 -0.44101547894789
 1  18.11335634273427  2.35830237803780 -1.03709669796980
 1  18.25997599369937  2.76083999089909  0.37639430993099
 1  20.24701726292629  0.78308115431543  0.77483083388339
 1  20.19771808980898  0.94731978157816 -2.40621274647465
 1  21.41766605660566 -0.10567236903690 -1.38757289068907
 1  19.59868259525953 -0.36694441284128 -1.37650572527253
 1  20.85411218981898  3.63859343844384  0.51840259385939
 1  22.20042778307831  2.46315289798980  0.05740302530253
 1  21.08297495039504  3.31665915311531 -1.32606740304030
 1 -0.39969559465947 -4.40582333173317  2.46483483148315
 1 -1.70356003700370 -4.63538081178118  3.86158679527953
 1 -1.04226824012401 -2.68558703580358  3.69664381758176
 8 -11.82270064436444  3.79187398659866 -0.48509032273227
 1 -12.93356386788679  2.08638987908791 -0.95541614661466

