%nproc=4
%Mem=2GB
# td=(NStates=1) iop(3/107=0140000000,3/108=0140000000) iop(3/107=0140000000,3/108=0140000000) CAM-B3LYP/6-31G(d,p) 

TD

0 1
12 -6.78052062416242  0.60982012611261  0.06235385488549
 6 -4.41095820232023 -1.96546496829683  0.50537081408141
 6 -4.35224704010401  2.85725735883588  1.15542842444244
 6 -9.12981568626863  3.13016704080408 -0.31966146784679
 6 -9.24104220182018 -1.81919494909491 -0.90204026272627
 7 -4.83567863976398  0.45203460116012  0.65493452555256
 6 -3.97208447404741 -0.72998270507051  0.67853840924092
 6 -2.69208262686269 -0.39177093629363  1.23863592589259
 6 -2.56531649744975  1.27767791659166  1.32318448094810
 6 -3.89322558545855  1.55351543674367  1.04704947964796
 6 -2.12915920162016  1.61746354225423  2.74791935473547
 6 -1.70309905830583 -0.75927849124912 -0.08025669936994
 6 -0.31183930223022 -1.27294900150015  0.48448752225222
 6  0.73211429062906 -1.27414465136514 -0.83399157295730
 8  0.64320438853885 -0.83338595109511 -1.85719670987099
 8  1.72711299789979 -2.17268756735674 -0.30375529802980
 7 -6.71246298849885  2.67686805680568  0.25814956285629
 6 -5.64063462436244  3.36848549174917  0.78196449264926
 6 -5.97417163236324  4.93707339213921  0.73840870947095
 6 -7.18885959935994  4.90645673617362  0.26951353465347
 6 -7.77804950885089  3.55900470887089 -0.03040820942094
 6 -5.10709562986299  5.94555198569857  1.32146981498150
 6 -8.31285284658466  6.12179910001000  0.36862638633863
 8 -8.00630454665466  7.27907952455246  0.93409126592659
 7 -8.86086964046405  0.56982784198420 -0.56479912901290
 6 -9.61504517691769  1.78978371367137 -0.41799285158516
 6 -10.90823745404541  1.52863273437344 -0.94242002320232
 6 -11.09718407590759  0.21656256065607 -1.08681953745374
 6 -9.84068573187319 -0.38393655685569 -0.65906798349835
 6 -12.14061083638364  2.44714090719072 -1.18100275107511
 6 -12.26143926442644 -0.45341890419042 -1.52361049474948
 6 -12.15890275237524 -1.22093425862586 -3.02237503220322
 7 -6.87609409230923 -1.30846340764076 -0.23005565006501
 6 -7.90518317991799 -2.11585158185819 -0.49841303930393
 6 -7.60556814191419 -3.61833915631563 -0.48059907000700
 6 -6.19836545774577 -3.59154831573157 -0.22235049564956
 6 -5.67108339703970 -2.08541735623562 -0.15779959565957
 6 -8.25616413991399 -4.75261263906391 -0.62015483138314
 6 -4.97466367086709 -4.45160095819582  0.20418844454445
 8 -4.69155090379038 -5.63080361866187  0.10819132573257
 6 -3.82025575097510 -3.38857941714171  0.47991263846385
 6 -3.30178368926893 -3.73249942544254  1.88136784978498
 8 -3.90116535663566 -3.88916565136514  2.87873654345435
 8 -1.89897157205721 -3.52492879817982  1.76874681388139
 6 -1.00159868196820 -3.81029611971197  3.00198462366237
 6  2.78140003280328 -2.29795497239724 -1.28076932103210
 6  3.83211697909791 -1.37920492159216 -0.89987551985199
 6  5.07939869526953 -1.09945681708171 -1.45951215281528
 6  5.21882586638664 -1.63284641934193 -2.83487046924692
 6  6.12944676927693 -0.07056470937094 -0.85127168566857
 6  7.38286698069807 -0.77638342044204 -0.53514025132513
 6  8.67388994929493  0.16469210381038 -0.25568404890489
 6  10.04711780118012 -0.54633155345535 -0.01241954765477
 6  9.90886840314031 -1.42802161686169  1.40780514931493
 6  11.04719704970497  0.56240109430943 -0.08807396899690
 6  12.52368763926393 -0.08984767756776  0.09455776697670
 6  13.77799934253425  0.86440371507151  0.55715861426143
 6  14.98265460066007  0.25897917601760  0.28743340544054
 6  15.22707769586959 -0.64245652615261  1.51240116411641
 6  16.07491712011201  1.36821172317232  0.18243144844484
 6  17.40513999209921  0.65383060746075 -0.16872374627463
 6  18.39259880728073  1.93322051325133 -0.53808395519552
 6  19.99370157125713  1.10722921772177 -0.63671375507551
 6  20.00197999929993  0.45399082938294 -1.90573636483648
 6  20.98264543344334  2.24488590659066 -0.49168426432643
 1 -3.65767640594059  3.48299955095510  1.35583498519852
 1 -9.90309429192919  3.83641272637264 -0.66467010091009
 1 -10.21666415801580 -2.31915231453145 -1.00346317221722
 1 -2.28654117091709 -0.86947456525653  2.25051509980998
 1 -1.76398573717372  1.51860233643364  0.41725817921792
 1 -1.46479786348635  1.16183449784978  2.91357206830683
 1 -1.73315148904890  2.52184076047605  2.61537765556556
 1 -2.89841217371737  1.31904979027903  3.66579244834483
 1 -1.96808582888289 -1.55882715571557 -0.73806159295930
 1 -1.63461863086309 -0.05069654255425 -0.86174596539654
 1 -0.03183518521852 -0.74640607390739  1.44683054825483
 1 -0.49212293209321 -2.51040737453745  0.82749298139814
 1 -4.46895142554255  6.35175300320032  0.53010796849685
 1 -5.98678895949595  6.67730040594059  1.92276918301830
 1 -4.26950797899790  5.43606256725673  1.97817558985899
 1 -9.27041005510551  5.81739684888489 -0.62989936573657
 1 -12.75434498809881 -1.28216908440844 -0.60037446464647
 1 -13.01738795379538  0.21560796059606 -1.32067970437044
 1 -12.84133195629563 -1.94657677307731 -3.54555167226723
 1 -11.96039300310031 -0.86145872437244 -4.02492466196620
 1 -11.25152197659766 -1.82520583758376 -3.00887749514952
 1 -8.10207939123912 -5.33623017861786 -1.71825405340534
 1 -7.87501271587159 -5.95391540414041 -0.55385503740374
 1 -9.33757103710371 -4.27320928212821 -0.33943933443344
 1 -2.77647722912291 -3.54029775467547 -0.11804011081108
 1  3.27311892729273 -3.46847412121212 -1.41547726482648
 1  2.45243953275327 -2.08836475147515 -2.19187942324232
 1  3.64513184088409 -1.10267301570157  0.16418001960196
 1  4.28265132213221 -0.99691316381638 -3.33310342534253
 1  6.35809938833883 -1.08532720812081 -2.75049627352735
 1  5.17442126952695 -2.71570418471847 -2.89711389518952
 1  6.27492791469147  0.89824516191619 -1.53844646184618
 1  5.95214032343234  0.56568211601160  0.06854259085909
 1  7.16831801070107 -1.54394259135914  0.01285300690069
 1  7.51300669906991 -1.16151494179418 -1.42564204010401
 1  8.68824095549555  0.76666726152615 -1.12268505380538
 1  8.13963246134614  0.53048823702370  0.83270897929793
 1  10.01377382448245 -1.25136257995800 -0.71846900450045
 1  9.28588083238324 -2.06067488318832  1.42523088388839
 1  10.65422149154915 -1.98753263446345  1.62217410881088
 1  10.02687589918992 -0.54966618901890  2.25917722282228
 1  10.98640227802780  1.04984774467447 -0.98612578417842
 1  10.84657440404040  1.29153802940294  0.88680256055606
 1  12.53171071327133 -0.85560800030003  0.78412209550955
 1  12.60459261326133 -0.41260948154816 -0.85905890339034
 1  13.64472934293429  1.94919446444644  0.12071316671667
 1  13.45573761856186  0.96893114441444  1.71186697609761
 1  14.81342276807681 -0.56710422642264 -0.72947113831383
 1  15.04982488238824 -0.26186579107911  2.60316308930893
 1  14.42507978147815 -1.60078775067507  1.47489498759876
 1  16.20143717681768 -1.38287187028703  1.54999147684768
 1  15.67278841374137  2.28254824822482 -0.46081605630563
 1  16.16520055265527  2.12041157665767  1.46601492469247
 1  17.78221953705371 -0.17426425582558  0.66626681338134
 1  17.49535705990599 -0.14795662646265 -0.88506988438844
 1  18.04704971207121  2.63544009180918 -1.68110109840984
 1  18.01873186928693  2.78834274117412  0.32279895039504
 1  19.98622118331833  0.05198804500450  0.11497484828483
 1  20.05107342534253  1.08324337393739 -2.79308143334334
 1  20.91084537453745 -0.13341514331433 -1.79175330873087
 1  19.15173790079008 -0.04935265366537 -2.35374344904490
 1  21.40022680128013  2.97338691779178  0.17458821242124
 1  22.03275101540154  2.12226880958096 -0.46304901990199
 1  20.69441609450945  2.72969045624563 -1.24372916921692
 1 -0.35599122422242 -4.06129887928793  2.51329967796780
 1 -1.54773445444544 -4.48687596129613  3.86060669726973
 1 -1.06228024132413 -3.09645812291229  3.44354850805080
 8 -11.89757813211321  3.66252105130513 -1.12980479417942
 1 -13.19672018351835  1.96259749984999 -1.56563716871687

