%nproc=4
%Mem=2GB
# td=(NStates=1) iop(3/107=0140000000,3/108=0140000000) iop(3/107=0140000000,3/108=0140000000) CAM-B3LYP/6-31G(d,p) 

TD

0 1
12 -6.68164073617362  0.64767391149115  0.14569218871887
 6 -4.51325843234323 -2.10422884468447  0.50329060606061
 6 -4.15104692009201  2.84231586468647  0.74938782038204
 6 -8.97371007570757  3.19269329342934 -0.22348184988499
 6 -9.24126222382238 -1.69443247284728 -0.47401746044604
 7 -4.56834190609061  0.41454085178518  0.33327235933593
 6 -3.87557482308231 -0.79539924672467  0.46026658205821
 6 -2.34922834143414 -0.50239199839984  0.85718778107811
 6 -2.28916888268827  1.04221437023702  0.95953811631163
 6 -3.73386964986499  1.49523960916092  0.69083385808581
 6 -1.72203848954895  1.51575337123712  2.47516207900790
 6 -1.42334108250825 -1.22075463886389 -0.21001967566757
 6 -0.15583370167017 -1.45679738633863  0.15348442194219
 6  0.77656873607361 -1.46273351025103 -1.04840301410141
 8  0.61231129922992 -0.87470008250825 -2.08989998019802
 8  1.78611889848985 -2.06006630523052 -0.67697261976198
 7 -6.58698044024402  2.66037640764076  0.38193194109411
 6 -5.44562512341234  3.32796143934393  0.67612390859086
 6 -5.78542275747575  4.82644232903290  0.58357322592259
 6 -7.15981669506951  4.82785887638764  0.36076265956596
 6 -7.61909361326133  3.43953276167617  0.24190902230223
 6 -4.66853177347735  5.86365379587959  0.68981664966497
 6 -8.11982354365436  5.98574549464947  0.48674819851985
 8 -7.62763667986799  7.23903552015202  0.32247010381038
 7 -8.83018657215722  0.66786764596460 -0.08591124022402
 6 -9.57673134553455  1.88151288658866 -0.40538159045905
 6 -10.89618624892489  1.60366023712371 -0.64867064826483
 6 -10.85441979947995  0.23190409480948 -0.84592544804480
 6 -9.71938360166017 -0.44405256845685 -0.48588066476648
 6 -11.89532630793079  2.59484567766777 -0.81805645644564
 6 -12.01756487698770 -0.59997355965597 -1.24612274597460
 6 -11.85859272137214 -1.53871603680368 -2.76381917661766
 7 -6.76120260316032 -1.33878643994399 -0.04375702020202
 6 -7.93482614421442 -2.18886888358836 -0.31732493049305
 6 -7.52788037313731 -3.62987030943094 -0.11477248734874
 6 -6.22950857205721 -3.50719988088809  0.18649038843884
 6 -5.82955924462446 -2.17455627012701  0.11809799409941
 6 -8.61676019951995 -4.68137551535153 -0.47213002890289
 6 -5.07978418291829 -4.32484828292829  0.24629265496550
 8 -5.08374012271227 -5.62026256455646  0.12639314591459
 6 -3.98504222962296 -3.43618417761776  0.57650229742974
 6 -3.25408891979198 -3.55048122362236  1.99539925292529
 8 -3.84246948704870 -3.66427316211621  3.03381205100510
 8 -1.90032170707071 -3.58516482178218  1.86770670987099
 6 -1.28295681778178 -3.99668475857586  3.01379580478048
 6  3.10684257705771 -2.20569574647465 -1.69120036413641
 6  4.01289505690569 -1.08954595569557 -1.36149168146815
 6  5.20045080048005 -0.98222509390939 -2.11764796639664
 6  5.54912889668967 -1.53632676737674 -3.36703368556856
 6  6.13982780738074  0.08955130223022 -1.54939149764976
 6  7.42630132413241 -0.78794457655766 -1.08231496879688
 6  8.50022258255825  0.32890852545255 -0.74791327182718
 6  9.59627271667167 -0.28725564586459 -0.23524182988299
 6  9.14101161746174 -1.04161297599760  1.09596396519652
 6  10.80157248724873  0.54942979717972  0.06903174157416
 6  12.08614388488849  0.02478378557856  0.40015832703270
 6  13.38761030363036  0.85937321202120  0.46137903630363
 6  14.70443677887789  0.26120939903990  0.62541720382038
 6  14.92451743984399 -0.49930221072107  1.84730465446545
 6  15.71761138953895  1.22746764876488  0.16885009030903
 6  17.04616409450945  0.69235445984598  0.19840296639664
 6  18.15919546694670  1.83184037523752 -0.06883703050305
 6  19.59227142824282  1.11017951275128 -0.05945602930293
 6  19.87684748604860  0.44657008730873 -1.41215700690069
 6  20.71626879577958  2.25648706670667  0.08933383748375
 1 -3.41678231653165  3.64522577357736  1.21057045874587
 1 -9.68977295979598  4.19517860296030 -0.24433806770677
 1 -10.10762325392539 -2.54338473777378 -0.94364719061906
 1 -2.48225074187419 -0.80984860266027  2.19296934523452
 1 -1.73360269886989  1.21378185438544  0.02481893529353
 1 -0.46501788548855  1.37116543094309  2.48517922902290
 1 -2.05566374027403  2.61007958435844  2.51896801460146
 1 -2.33245557805781  0.67478536383638  3.36324219331933
 1 -2.05304432473247 -2.07801907490749 -0.60763855065507
 1 -1.49267443644364 -0.63684515741574 -0.92842263306331
 1 -0.00532253395340 -0.57200863416342  0.70689655485549
 1  0.00047632783278 -2.23911024482448  0.74987521962196
 1 -3.89350388078808  5.71985981388139 -0.38680372267227
 1 -4.96703698429843  6.74100677657766  1.06335324142414
 1 -4.26302733093309  5.35449441044104  1.66329410171017
 1 -9.37020003410341  5.79555466466647  0.80686431063106
 1 -12.68092764636464 -1.29849071657166 -0.34311873907391
 1 -13.03469968496850  0.33154955475548 -1.56360399679968
 1 -12.54261208430843 -2.09277139253925 -2.92473959105911
 1 -11.30262722652265 -0.90659323782378 -3.66942911241124
 1 -11.54128095249525 -2.69004232123212 -2.96544315171517
 1 -9.10915009830983 -4.91803835943595 -1.54843707170717
 1 -7.91452666726673 -5.46751676427643 -0.09060871277128
 1 -9.51898917891789 -4.82170413161316  0.35489009850985
 1 -3.32736231763176 -4.03264698959896 -0.18686699349935
 1  3.22722433783378 -3.27492476627663 -1.30855657275728
 1  2.53554784358436 -1.99231514651465 -2.49200943624362
 1  3.54098142584258 -0.37142989138914 -0.33794019241924
 1  4.57110016701670 -1.97787125962596 -3.88037815281528
 1  6.01287486588659 -0.69075775117512 -4.01361258515851
 1  6.14115794319432 -2.39460207450745 -3.13311749554955
 1  6.20282070397040  0.76191152855285 -2.67391000820082
 1  5.75849095849585  0.66279182698270 -0.81451571497150
 1  7.01621280018002 -1.42412060916092 -0.22424070247025
 1  7.93886928532853 -0.91433022332233 -1.87111658755876
 1  8.31615374677468  1.02081267606761 -1.74878766406641
 1  8.11787028512851  0.92558774697470 -0.03608790039004
 1  10.03277572467247 -0.84120156385639 -0.81606876447645
 1  8.37724996929693 -1.57050586628663  0.95847420822082
 1  10.33855992539254 -1.67187106830683  1.91970386178618
 1  8.78226143774378 -0.13652487488749  1.88077938303830
 1  10.91378501630163  1.11259401930193 -0.57880505210521
 1  10.53337308390839  1.05736461206121  1.05515939623962
 1  12.31744928712871 -0.54123656315632  1.12923660696070
 1  12.41424357835784 -0.60148836943694 -0.30170316781678
 1  13.13685855585559  1.16615616061606 -0.43649255385539
 1  13.40805285008501  1.58114236553655  1.06297208660866
 1  14.69703112891289 -0.08512602860286 -0.29504769596960
 1  14.95317521742174  0.08711910741074  2.81126389938994
 1  14.19050632413241 -1.06896456835684  2.04756225432543
 1  15.85170220332033 -1.35952953605361  1.97075355305531
 1  15.59506064096410  1.90209020242024 -0.98857883258326
 1  15.70505453805380  2.32681221672167  0.80788911211121
 1  17.23358467356736 -0.08690551995200  1.05935612231223
 1  17.39806733093309 -0.12055388618862 -0.62804418181818
 1  18.04896990409041  2.39415596339634 -0.87799078737874
 1  18.24657465356536  2.98955286218622  0.60393706420642
 1  19.87508006920692  0.25551839803980  0.72303565436544
 1  19.50910922892289  1.05845089468947 -2.24788691389139
 1  20.77862215221522 -0.00799260106011 -1.38138227162716
 1  19.14915764276428 -0.42362008040804 -1.57486556125612
 1  20.64116089468947  2.54238381748175  1.25049580318032
 1  21.52910065036504  2.01495807850785 -0.19532224722472
 1  20.09605625852585  2.97485497269727 -0.40457525382538
 1 -0.60925655075508 -4.95680843024302  2.38640698869887
 1 -1.91247092809281 -4.38018529222922  4.30352098869887
 1 -0.64081809510951 -3.05009348644864  3.26320047324733
 8 -12.03752212651265  3.71897669686969 -0.66484829852985
 1 -12.89569008050805  2.12056329642964 -0.66472707770777

