%nproc=4
%Mem=2GB
# td=(NStates=1) iop(3/107=0140000000,3/108=0140000000) iop(3/107=0140000000,3/108=0140000000) CAM-B3LYP/6-31G(d,p) 

TD

0 1
12 -6.85710828292829  0.58959810391039  0.14296191569157
 6 -4.62074918141814 -2.10067848964896  0.42201247824782
 6 -4.10615243064306  2.69878151125113  0.98593147474747
 6 -8.80718342304231  3.19755377947795 -0.17789729142914
 6 -9.32994109170917 -1.66048907850785 -0.72231228992899
 7 -4.65669074097410  0.36366576427643  0.55023405550555
 6 -3.94793205880588 -0.94558426522652  0.55395595099510
 6 -2.52900631923192 -0.77339909910991  1.04288635093509
 6 -2.48821878767877  0.71201134993499  1.42161432393239
 6 -3.86193245614561  1.34983506870687  1.01170594529453
 6 -2.24569085478548  0.97492928882888  2.83404796759676
 6 -1.54834358275828 -1.23669623302330 -0.06246492019202
 6 -0.18771688998900 -1.22188389498950  0.38074714821482
 6  0.69641072027203 -1.49207644454445 -0.83966214001400
 8  0.68462853095310 -1.28860147264726 -1.95564655485549
 8  1.83877416401640 -2.13191348994899 -0.19594451695169
 7 -6.53695543774377  2.57153752375237  0.28411215911591
 6 -5.48586914781478  3.21202984618462  0.77604390059006
 6 -5.75128934413441  4.63056274107411  0.76665153375338
 6 -6.90745145854586  4.78318440894089  0.45800238353835
 6 -7.62466417031703  3.51812062046205  0.24160899229923
 6 -4.63981890219022  5.70378780928093  1.18054572257226
 6 -7.69585114641464  6.26038295839584  0.37613713741374
 8 -7.05165908210821  7.30150176677668  0.31068892569257
 7 -8.77934148764876  0.70588144734473 -0.38753140224022
 6 -9.43143681608161  1.91160589588959 -0.49827087938794
 6 -10.72062869316932  1.69167903900390 -0.87846362756276
 6 -10.81961631913191  0.29443034743474 -1.10629148464846
 6 -9.69051071437144 -0.29530769396940 -0.63737581428143
 6 -11.72046882218222  2.78967516061606 -0.94814946574657
 6 -12.19580270077008 -0.38462202450245 -1.35460359405941
 6 -12.14981184328433 -0.78413057825783 -2.95976877157716
 7 -6.95416189908991 -1.38466102740274 -0.10811345584558
 6 -8.07532019361936 -2.24028402510251 -0.48289148714871
 6 -7.65661324642464 -3.54420174257426 -0.57382839293929
 6 -6.44611023222322 -3.54095325622562 -0.22476073667367
 6 -5.96921321002100 -2.29994880938094  0.09884606890689
 6 -8.45899442294230 -4.65044242204220 -1.14717753365337
 6 -5.32637884238424 -4.35478127622762 -0.03106508080808
 8 -5.25958770747075 -5.58410894919492 -0.18139763316332
 6 -4.01296502190219 -3.41018157735774  0.46767141434143
 6 -3.81589510041004 -3.79128530403040  1.91660137313731
 8 -4.47451269136914 -4.13808054285429  2.75094376417642
 8 -2.39493116801680 -3.72785909120912  2.14889482868287
 6 -1.88386690879088 -3.89504459455946  3.38266269146915
 6  2.96900879367937 -2.46275145204520 -1.05463670777078
 6  3.96948071547155 -1.45804280538054 -0.93291882418242
 6  5.13987474287429 -1.45438230963096 -1.40827702930293
 6  5.62737672147215 -2.56974010871087 -2.70481746394639
 6  6.19020284488449 -0.29842749564956 -1.21658821732173
 6  7.46415510951095 -0.69955573767377 -0.74140087738774
 6  8.54433699399940  0.18353398799880 -0.66250473097310
 6  9.80762385178518 -0.31556847714772 -0.26167447314731
 6  9.66064358065806 -0.98798761346135  1.11223559235924
 6  10.99919224922492  0.79823467766777 -0.11047620922092
 6  12.41100637113711  0.25930723792379  0.32914122532253
 6  13.51481302390239  1.40906818151815  0.25189808820882
 6  14.89434576977698  0.69475275337534  0.72908757085709
 6  14.92253724182418  0.50186790629063  2.31562148614861
 6  16.06107573597360  1.69867476947695  0.06942014731473
 6  17.27533701180118  1.11935716011601 -0.14056092999300
 6  18.54634418181818  2.10200739193919 -0.33014316111611
 6  19.86699890099010  1.31777027182718 -0.70936101980198
 6  19.69166896819682  0.40079550985098 -1.85098088928893
 6  21.01979914881488  2.31419283728373 -0.71367646354635
 1 -3.27283792209221  3.17594884588459  1.45047444914491
 1 -9.50223420592059  4.09047813291329 -0.36709034293429
 1 -10.14109660126013 -2.42285268456846 -0.99928275417542
 1 -2.39262177897790 -1.46248386618662  2.09090913921392
 1 -1.67132647124713  1.30281075727573  0.85339179257926
 1 -0.84322570627063  0.79831814621462  3.31080179127913
 1 -2.21405957985799  1.93278185458546  2.90946706450645
 1 -3.00893322582258  0.77210509580958  3.48548441754175
 1 -2.05689470977098 -2.29204047704770 -0.47787557435744
 1 -1.55119028802880 -0.66320779367937 -1.31697148794879
 1 -0.02762476417642 -0.17379881318132  0.70752661786179
 1  0.25671195139514 -1.81913824762476  1.02997322942294
 1 -4.24777930833083  5.94216204410441 -0.03894893719372
 1 -5.20421070167017  6.61762443834383  1.64214112021202
 1 -4.35716674487449  5.36278523952395  2.07061483378338
 1 -8.96536955105510  6.01857696689669  0.26062968716872
 1 -12.56612616621662 -1.19806067356736 -0.79237366456646
 1 -13.08163437843784  0.42444884468447 -1.13458109450945
 1 -12.98075589868987 -0.84343645904590 -3.26613373047305
 1 -12.15191215501550  0.02113953545355 -2.97912008150815
 1 -11.40549737413741 -1.44232754975498 -3.13253986138614
 1 -8.70848003130313 -4.56063261886189 -2.27044927292729
 1 -7.90282549714972 -5.65128514111411 -1.25490514241424
 1 -9.56678395839584 -4.51706366756676 -0.71859725022502
 1 -3.13371295269527 -3.73059678457846 -0.20244855165517
 1  3.18310992639264 -3.59000627442744 -0.82380809790979
 1  2.45611990079008 -2.41344725972597 -2.14500473577358
 1  3.95151247894790 -0.63600634903490 -0.27670406880688
 1  5.13891694869487 -2.19150262276228 -3.86869698469847
 1  6.77523110151015 -2.53761243664366 -3.13278450235024
 1  5.14715854325433 -3.71978459275927 -2.29505368916892
 1  6.03106352825283  0.23317865526553 -2.13155577277728
 1  5.86323143254325  0.23368891669167 -0.66478074147415
 1  7.03693487238724 -1.37522571967197  0.21769349094910
 1  7.75171056945694 -1.85796458675868 -1.46896637253725
 1  8.45254738613861  0.70143073787379 -1.90158294359436
 1  8.32491098919892  1.12048723692369 -0.06077036863686
 1  10.11195364246425 -0.75372281598160 -1.07466462406241
 1  8.65587783208321 -1.48540735643564  1.22017037783778
 1  10.50088615801580 -1.63216709790979  1.23743563496350
 1  9.27846105770577 -0.29999122152215  1.75016632173217
 1  10.99409304710471  1.11464422432243 -0.87784495609561
 1  10.89719946654665  1.16646552215222  0.68914279457946
 1  12.38997653985398 -0.24026646614661  1.52036571987199
 1  12.70504265826583 -0.84384260486049 -0.04474747224723
 1  13.45193006300630  1.82263180818082 -0.76595550015002
 1  13.10398244304430  2.14012826412641  0.79675546494650
 1  15.20159158495850 -0.18174569056906  0.15393720252025
 1  14.53871377127713  1.28628902440244  2.80112288528853
 1  14.24865213871387 -0.33107077897790  2.47807530563056
 1  15.80422745584558  0.14369078597860  2.75647212491249
 1  16.12148328322832  2.44610460386039 -0.71578155285529
 1  16.16921095369537  2.64505404090409  0.71870019321932
 1  17.52353366846685  0.71283445404540  0.48645883258326
 1  17.09940746494649  0.55296346554656 -0.92915429282928
 1  18.19417442454246  2.91806835463546 -1.02214520282028
 1  18.80513050915092  2.99014292119212  0.35793246374637
 1  19.70582314351435  0.55131797799780  0.10690404120412
 1  19.64100241824182  0.82280733033303 -2.81233335853585
 1  20.56815110511051 -0.05084688648865 -2.23761789518952
 1  18.94494722172217 -0.44290200860086 -1.68735681038104
 1  21.11706848544855  2.87797737683768  0.00882163576358
 1  22.17365510581058  1.53488007070707 -0.64937765276528
 1  20.96926357925792  3.39096658385839 -1.83101789808981
 1 -0.60130575567557 -3.86019876927693  3.25300364836484
 1 -2.35451513251325 -4.99111638533854  3.32181281788179
 1 -2.55647966126613 -2.96818529562956  4.50784493769377
 8 -11.35768414271427  3.96672147134713 -0.84539635333533
 1 -12.86201671317132  2.54896613671367 -1.25781638663866

