%nproc=4
%Mem=4GB
# td=(NStates=1) iop(3/107=0140000000,3/108=0140000000) iop(3/107=0140000000,3/108=0140000000) CAM-B3LYP/6-31G(d,p) 

TD

0 1
12 -5.60168167476748  1.21969684398440  0.30088869406941
 6 -5.12961334853485 -2.10794925822582 -0.27419428622862
 6 -3.48591738083808  1.15880616541654  2.89188456175618
 6 -6.08765756145615  4.55805907010701  0.54906511531153
 6 -8.13688945604560  1.17438828952895 -2.33525119861986
 7 -4.42797705100510 -0.30427861966197  1.14691603040304
 6 -4.32866639413941 -1.62121582318232  0.78298064766477
 6 -3.32913603810381 -2.35220852365237  1.56928129182918
 6 -2.97823099409941 -1.41856474737474  2.67754431053105
 6 -3.64159158655866 -0.09400202790279  2.25533011821182
 6 -3.60905394479448 -1.70989443084308  4.10578327772777
 6 -2.11017621082108 -2.72982039133913  0.70603590909091
 6 -1.01187283078308 -3.51327890849085  1.45697928592859
 6  0.31594669516952 -3.80258409910991  0.55485368006801
 8  0.41663172747275 -3.43043035663566 -0.57880411461146
 8  0.97127397309731 -4.72646226352635  1.30041464876488
 7 -4.80121093739374  2.65072444934493  1.38382861456146
 6 -3.94733682348235  2.43698111981198  2.40991159445945
 6 -3.62464196789679  3.71693019521952  3.17007756395640
 6 -4.46099665236524  4.60405193349335  2.49754902620262
 6 -5.14915101930193  4.03340143534353  1.41494758705871
 6 -2.79235459855986  3.88353572937294  4.31545573497350
 6 -4.55929245984598  6.05507292779278  2.88171767656766
 8 -3.97435748374837  6.61960984898490  3.79296319621962
 7 -6.86007980788079  2.63912380818082 -0.74408606490649
 6 -6.96163887868787  3.92368198539854 -0.44531622032203
 6 -7.89439462586259  4.64798152295230 -1.30366447594759
 6 -8.42057151045104  3.64341127102710 -2.06852579697970
 6 -7.72650154065407  2.45757176597660 -1.75233117961796
 6 -8.13808679957996  6.12952286168617 -1.29343885268527
 6 -9.42417678097810  3.77833823202320 -3.16168080088009
 6 -8.84967642134214  4.04599274547455 -4.58017442144214
 7 -6.49292771177118 -0.13859887758776 -1.00421551355136
 6 -7.43511304090409 -0.02312838143814 -2.04269848054805
 6 -7.54787229442944 -1.35792749634964 -2.64654717731773
 6 -6.63328287708771 -2.18067763956396 -2.02425859155916
 6 -6.03491190659066 -1.39585315041504 -1.01486761716172
 6 -8.54930038783878 -1.70355048104810 -3.73893078927893
 6 -6.17223089018902 -3.56420200410041 -2.00797435253525
 8 -6.39413380888089 -4.56537423582358 -2.65584184928493
 6 -5.03138170027003 -3.55316336893689 -0.86016833663366
 6 -5.26430390779078 -4.66344178527853  0.14838851065106
 8 -5.84763053465347 -4.50009901800180  1.25359172257226
 8 -4.99073877207721 -5.86334753115311 -0.34607775237524
 6 -5.29030659485949 -7.04690654395440  0.37485931573157
 6  2.32743371657166 -5.19090021022102  0.50098405280528
 6  3.38012254725473 -4.28641880278028  0.93344124392439
 6  4.02650204040404 -3.38111098119812  0.15064869986999
 6  3.58726306520652 -3.26203114441444 -1.36234573907391
 6  5.19725615141514 -2.57219226682668  0.63218701750175
 6  6.60449532083208 -2.85588851405140  0.03119458685869
 6  7.62468779237924 -1.88647800330033  0.50229592009201
 6  9.04713553485348 -1.90680551415142 -0.19780756325633
 6  9.65280166186619 -3.34424506490649 -0.04998845654565
 6  10.07080765986599 -0.92851308870887  0.42381489698970
 6  11.28910621302130 -0.84128373527353 -0.37748651485149
 6  12.17956564516452  0.19207383488349  0.14203105070507
 6  13.49332178797880  0.52249711961196 -0.59767453065307
 6  14.45704400340034 -0.62665206780678 -0.55818996989699
 6  14.20664660426043  1.84783095469547 -0.22820207500750
 6  15.50783497389739  2.17562559075908 -1.02810780578058
 6  16.01641422582258  3.51067582038204 -0.50502111531153
 6  17.43287853695369  4.01909975157516 -1.21378531373137
 6  17.08891148084808  4.15371026272627 -2.67526975117512
 6  17.90160956705670  5.25891115641564 -0.59315877477748
 1 -2.73191891469147  1.36936121152115  3.69977044544454
 1 -6.37951593039304  5.70155553595360  0.87343633533353
 1 -8.81905231243124  1.06620692359236 -3.27578305710571
 1 -3.72864392919292 -3.34966028142814  1.88851691249125
 1 -2.00294741864186 -1.18443610521052  2.91772304840484
 1 -3.34697447654766 -2.67379054025403  4.47903144714471
 1 -3.27501829452945 -0.90729063346335  4.78074010381038
 1 -4.75406791849185 -1.65103418431843  4.05232918341834
 1 -2.36289160286029 -3.35670518781878 -0.27503812761276
 1 -1.67660549294930 -1.74950406670667  0.21484960656066
 1 -0.47676310981098 -3.00476177177718  2.26140035873587
 1 -1.31830655225523 -4.40763789498950  1.78778057605761
 1 -1.52440255405541  4.00226975137514  3.91172708240824
 1 -3.10804179427943  4.96636384238424  4.81212747044705
 1 -2.95257825282528  3.05830682818282  5.19620462646265
 1 -5.58502156605661  6.39996419081908  2.43118844024402
 1 -10.16463559705971  2.71441209830983 -3.18209146084608
 1 -10.17041783968397  4.57426127022702 -3.12199248994900
 1 -9.75986578637864  4.17790620462046 -5.10788599089909
 1 -8.04973448284828  4.91105085048505 -4.61515147014701
 1 -8.53485333433343  3.18003736253625 -4.99548947374737
 1 -8.46145373497350 -1.11089163206321 -4.55583658195820
 1 -8.27617860086009 -2.70616402150215 -3.97767040404040
 1 -9.52787286678668 -1.51983880728073 -3.37398430513051
 1 -4.02779013641364 -3.52871769836984 -1.38040132703270
 1  2.22754388738874 -6.10904884788479  0.92400835773577
 1  2.00250099349935 -5.33011998809881 -0.49801325092509
 1  3.64885700800080 -4.42998228002800  1.91737674527453
 1  2.56296128282828 -3.26939256035604 -1.48473101410141
 1  3.97071168446845 -2.14882844214421 -1.59871234173417
 1  4.15139731373137 -3.87575130433043 -1.80950987688769
 1  4.89109915081508 -1.59063548754876  0.45275715921592
 1  5.08643717101710 -2.40764239663966  1.71273615391539
 1  7.15651317801780 -3.81777496959696  0.05977386138614
 1  6.52061222162216 -2.64713232223222 -0.94041463696370
 1  7.14021295259526 -0.75433875897590  0.48546579207921
 1  7.80595269816982 -1.96241282438244  1.66987137243724
 1  9.08963307260726 -1.66937521272127 -1.19534287238724
 1  9.07613213191319 -4.11156992839284 -0.35367916031603
 1  10.72603194399440 -3.63653785588559 -0.46453656715672
 1  9.88969803120312 -3.63199429092909  1.06848729142914
 1  9.69972912351235  0.18349407560756  0.33982934673467
 1  10.24053415091509 -1.21095762966297  1.51339087908791
 1  11.75839098039804 -1.89277930983098 -0.20737511071107
 1  11.19505559225923 -0.57842074697470 -1.55458679227923
 1  11.60611164466447  1.07620204940494  0.28364880968097
 1  12.33072789608961  0.24243543494349  1.21022930313031
 1  13.24979177987799  0.72204663696370 -1.66175841454145
 1  14.78996833513351 -0.84723293599360  0.52395807580758
 1  13.89032460346034 -1.59107812411241 -0.57850417191719
 1  15.16199718811881 -0.58576177437744 -1.46192308480848
 1  13.60062825702570  2.57219183828383 -0.19224101180118
 1  14.54324102440244  1.64121441064106  0.82042925682568
 1  16.19826148194819  1.21982059475948 -0.89324581528153
 1  15.38947453085309  2.26385029782978 -2.07300868056806
 1  15.22434383898390  4.16211158915892 -0.80997299539954
 1  16.11664443454346  3.58024466586659  0.64215411581158
 1  18.14025770717072  3.10095158635864 -1.09499857945795
 1  16.45811653205320  4.83573010191019 -2.92284464426443
 1  18.12162808630863  4.44440395369537 -3.13813841894189
 1  16.80320052025203  3.28011908190819 -3.17472550715071
 1  18.28739478667866  5.13011422892289  0.43272493669367
 1  18.79975749804981  5.66842099429943 -1.08073498789879
 1  17.11500305120512  5.97315681878188 -0.51570563186319
 1 -4.62588789018902 -7.88007744084408 -0.11038457615762
 1 -6.43195762606261 -7.25801288788879  0.53409691719172
 1 -4.88098626722672 -6.82288386398640  1.33473793039304
 8 -7.65420301190119  6.88806530733073 -0.49350713471347
 1 -8.76106440354035  6.58315396029603 -2.08246392919292

