%nproc=4
%Mem=4GB
# td=(NStates=1) iop(3/107=0140000000,3/108=0140000000) iop(3/107=0140000000,3/108=0140000000) CAM-B3LYP/6-31G(d,p) 

TD

0 1
12 -5.67434894149415  1.27044191849185  0.23705231043104
 6 -4.99915030223022 -2.19374783808381 -0.31266813361336
 6 -3.34019280838084  1.15703598839884  2.79193456675668
 6 -6.13116191189119  4.54635789999000  0.62541275007501
 6 -7.96032179927993  1.25422627332733 -2.34516218971897
 7 -4.42595684898490 -0.35878407020702  1.07415875467547
 6 -4.20880440794079 -1.66777047864786  0.69872222182218
 6 -3.12141526602660 -2.45622892569257  1.50910527422742
 6 -2.82353552455245 -1.39252214311431  2.59919647574758
 6 -3.56423385078508 -0.08762138983898  2.12700728592859
 6 -3.51621466086609 -1.80080352175218  3.95079777917792
 6 -1.93984917811781 -2.71660907020702  0.57659296479648
 6 -0.95887753125313 -3.53183076367637  1.43778736673667
 6  0.24240934143414 -3.82963680438044  0.60150834553455
 8  0.52191225552555 -3.43226053965397 -0.57738397259726
 8  1.06299314501450 -4.73689330663066  1.21140574787479
 7 -4.83093390969097  2.61620099699970  1.48048828052805
 6 -3.85308739853985  2.36448387008701  2.45028563186319
 6 -3.56216572027203  3.62787128932893  3.05933648984898
 6 -4.43868442114211  4.61073260156016  2.52844211551155
 6 -5.19087519171917  3.92987108230823  1.47421351365136
 6 -2.62658802190219  3.75372274807481  4.17479166856686
 6 -4.51509804040404  6.01972939343934  2.85957546234624
 8 -3.90759080708071  6.61804969296930  3.73731763166317
 7 -6.84502830273027  2.66008590439044 -0.78955061136114
 6 -6.95590830563056  3.86886650385039 -0.35763745244524
 6 -8.01458664506451  4.57742446724672 -1.13623773327333
 6 -8.46456590989099  3.60415734563456 -2.10071901630163
 6 -7.71624051455146  2.45128113691369 -1.65971191769177
 6 -8.33751674257426  6.06277618701870 -1.22228173697370
 6 -9.52557692099210  3.82227262546255 -3.15221985478548
 6 -8.82721417511751  4.16635478167817 -4.57285368936894
 7 -6.36468488748875 -0.10526554425443 -1.05621071307131
 6 -7.31726125572557 -0.05487155575558 -2.05594980568057
 6 -7.56245375257526 -1.30819252285229 -2.78196071867187
 6 -6.70021957075708 -2.15712528432843 -2.04627079277928
 6 -5.97712612801280 -1.41329489458946 -1.10481661206121
 6 -8.50229568736874 -1.63221334733473 -3.76799369556956
 6 -6.24061772887289 -3.55236081998200 -1.99122267736774
 8 -6.59851424692469 -4.46554425282528 -2.64817108220822
 6 -5.07588615071507 -3.52370042264226 -0.89770209000900
 6 -5.38071554895490 -4.68663410451045  0.15850952275228
 8 -5.64620039163916 -4.61336034413441  1.29720608400840
 8 -5.16627632583258 -5.86694789118912 -0.45572871747175
 6 -5.50238780298030 -6.89556140944094  0.63198502830283
 6  2.27248822202220 -5.03190431063106  0.50796475087509
 6  3.35279981498150 -4.19002916381638  0.99647754755476
 6  3.97324671487149 -3.27103997409741  0.13380701570157
 6  3.60254459335934 -3.03788873017302 -1.27657716221622
 6  5.05123154895490 -2.32278732633263  0.75402920172017
 6  6.38922379367937 -2.67940086528653  0.20153162056206
 6  7.66593191679168 -1.80144950045005  0.70563625412541
 6  8.96074689598960 -2.00467530113011 -0.02642042454245
 6  9.53566994869487 -3.48200884128413  0.03344988728873
 6  10.01762234133413 -0.91697193459346  0.43176569206921
 6  11.38400570297030 -0.88776838373837 -0.40399916611661
 6  12.27931562016201  0.17084171167117  0.17256410401040
 6  13.67098955475548  0.35084995489549 -0.51038580178018
 6  14.62000029902990 -0.77590699329933 -0.16443059395940
 6  14.19863580318032  1.78585475707571 -0.25590484528453
 6  15.41704589498950  2.19640766896690 -1.01355635063506
 6  15.85726831123112  3.59710446324632 -0.58496911011101
 6  17.24034928402840  4.04002184378438 -1.30688462366237
 6  17.14255684538454  4.10806569826983 -2.76346857105711
 6  17.76906631273127  5.31549681498150 -0.80736019491949
 1 -2.72990871367137  1.23065734113411  3.63416388478848
 1 -6.25510348914892  5.62225760616062  0.79970896259626
 1 -8.84873528072807  1.09243954685469 -3.15326080488049
 1 -3.62438350315032 -3.26254156955696  1.93068112891289
 1 -1.72932005590559 -1.13372103370337  2.57565884198420
 1 -3.00208998809881 -2.55658882008201  4.46175971997200
 1 -3.59744053675368 -0.89256916131613  4.73793582338234
 1 -4.62079459115912 -2.28314739563956  3.96123007350735
 1 -2.32744805850585 -3.29225874317432 -0.12847347114711
 1 -1.34700253265327 -1.86266538283828  0.12812093369337
 1 -0.68245367886789 -3.08024932053205  2.28790300900090
 1 -1.36455117671767 -4.49251638283828  1.71485328332833
 1 -1.56507662146215  3.83069259365937  3.85496140584058
 1 -2.72462345244524  4.89773697969797  4.76489274697470
 1 -2.77311030603060  2.83472446994699  4.90653565956596
 1 -5.27655071897190  6.66615080948095  2.24435975737574
 1 -10.15758489198920  2.98623928102810 -3.41106435813581
 1 -10.34340513841384  4.74338818291829 -2.87852814351435
 1 -9.85928572837284  4.06519493349335 -5.40238544084408
 1 -8.39514902430243  5.16970671607161 -4.48164811981198
 1 -7.90763061206121  3.31812117091709 -4.63561348614861
 1 -8.28891648124813 -0.97409795269527 -4.68545954425443
 1 -8.50569155215522 -2.74162756785679 -3.76008864586459
 1 -9.54855493499350 -1.31485830923092 -3.30092699939994
 1 -4.23285064246425 -4.03993882048205 -1.33688697559756
 1  2.42324345734574 -6.00412835583558  0.69269522642264
 1  2.13001374477448 -5.01429840594059 -0.59460290989099
 1  3.50027214951495 -4.33172245404540  1.95071007860786
 1  2.45770075677568 -3.58628424952495 -1.38322086308631
 1  3.48709332263226 -1.86609016831683 -1.67749021952195
 1  4.30214238823882 -3.67925165436544 -2.11937086298630
 1  4.88662870377038 -1.29397582158216  0.55017690119012
 1  5.16148467576758 -2.45744737713771  1.81028590889089
 1  6.83922144884488 -3.76547974007401  0.43535141914191
 1  6.44385454585459 -2.60691830083008 -1.00338093359336
 1  7.26025495679568 -0.82138546364637  0.50977822332233
 1  7.71132323522352 -1.94008059115912  1.73701808710871
 1  8.89410351965197 -1.80487876307631 -1.02298563666367
 1  8.58432295099510 -4.01941071247125 -0.15867966036604
 1  10.38104744554455 -3.63635783788379 -0.65685579907991
 1  10.02252131353135 -3.43111420292029  1.07741818451845
 1  9.51877102770277  0.21296702290229  0.44755011881188
 1  10.25325542304230 -1.05877241114111  1.30400994099410
 1  11.84772991429143 -2.03553358525853 -0.31108548174817
 1  11.16544263096310 -0.79864276917692 -1.42489382298230
 1  11.89571060456046  1.13848827802780  0.05145559035904
 1  12.58967379067907  0.03999519091909  1.21606988718872
 1  13.63428022872287  0.30346477877788 -1.52388462716272
 1  14.66523586188619 -0.88423663636364  0.86019169916992
 1  14.30768633963396 -1.66206522282228 -0.45529185068507
 1  15.64821580998100 -0.65959915811581 -0.55324221672167
 1  13.38341653585359  2.54557917701770 -0.59811159885989
 1  14.42237893819382  1.83778406760676  0.89690690459046
 1  16.12941459725972  1.55368398109811 -0.93469996069607
 1  14.94984056745675  2.20255416821682 -2.05853723342334
 1  15.08980038463846  4.32867824582458 -0.69765176327633
 1  16.28413118321832  3.47889453085309  0.36349625002500
 1  18.00145382678268  3.01967345854585 -1.10549962956296
 1  16.32825354575457  4.80926745564557 -3.17476983678368
 1  17.97622354585459  4.52145165846585 -3.17892249734974
 1  16.92567276747675  3.10070114011401 -3.13392142674267
 1  17.79427547474747  5.56044726222622  0.23326499069907
 1  18.63828135043504  5.67010116231623 -1.27056397079708
 1  17.15326687758776  6.28894839793979 -0.98219228052805
 1 -5.35193049444945 -7.88144757785779  0.16969343164316
 1 -6.62078650895090 -6.60752783938394  0.80810431793179
 1 -4.82067023562356 -6.71212278787879  1.44692914951495
 8 -7.85694328592859  6.85446194699470 -0.40268805280528
 1 -8.95484378147815  6.40919656455646 -2.19341502430243

