%nproc=4
%Mem=4GB
# td=(NStates=1) iop(3/107=0140000000,3/108=0140000000) iop(3/107=0140000000,3/108=0140000000) CAM-B3LYP/6-31G(d,p) 

TD

0 1
12 -5.60741224782478  1.15236011031103  0.17478608380838
 6 -5.02065245244524 -2.11098956225623 -0.35468233503350
 6 -3.48488727782778  1.22924320912091  2.88138351165117
 6 -6.17590638633863  4.54931819601960  0.62806301510151
 6 -8.03408917601760  1.20985183588359 -2.35439311281128
 7 -4.45276953025303 -0.22207039883988  1.10732207100710
 6 -4.29565309280928 -1.53245694729473  0.67307965756576
 6 -3.20502362686269 -2.22504580738074  1.46532089578958
 6 -2.97014018501850 -1.26249914081408  2.62862941904190
 6 -3.62487991539154  0.02507988028803  2.15452003720372
 6 -3.40088312771277 -1.75888933033303  3.94167686708671
 6 -1.99830502370237 -2.52597000630063  0.57147245274527
 6 -1.06557820132013 -3.50568814941494  1.29646323432343
 6  0.26118121862186 -3.90422426312631  0.56426462116212
 8  0.42209227352735 -3.46360367396740 -0.56025225942594
 8  0.94479132483248 -4.83030264756476  1.33606821412141
 7 -4.90000081638164  2.59202857975798  1.35820605230523
 6 -4.06702879267927  2.39036645834583  2.39558016131613
 6 -3.82941244494449  3.69380788298830  3.11656221242124
 6 -4.58609916261626  4.66145767406741  2.54262353365337
 6 -5.25178128232823  3.98151624682468  1.48552464476448
 6 -2.86766212931293  3.78673604940494  4.40247443684368
 6 -4.68322485308531  6.05447286778678  3.05319482428243
 8 -4.17538758675868  6.54330221822182  3.91851575147515
 7 -6.77167096699670  2.63160305610561 -0.78900055635564
 6 -6.91706442124212  3.91934155135514 -0.37547923662366
 6 -7.91327651405140  4.64758148294829 -1.18670277977798
 6 -8.38966842014201  3.68003493339334 -2.05586453085309
 6 -7.80748963946395  2.39118512731273 -1.68451439793979
 6 -8.17441043194319  6.11435134453445 -1.18111762056206
 6 -9.45336970027003  3.73405380358036 -3.19515414821482
 6 -8.92541399509951  3.88778692489249 -4.66088249224923
 7 -6.35213363236324 -0.12232725042504 -1.15078017001700
 6 -7.31527105670567 -0.05838190679068 -2.01878608930893
 6 -7.55015252245225 -1.34485618921892 -2.74002652525253
 6 -6.65747529632963 -2.17592716451645 -1.98900506620662
 6 -5.95471388678868 -1.36047961306131 -1.03810994139414
 6 -8.58786424422442 -1.63362348834883 -3.76693358955896
 6 -6.10007367446745 -3.57136272017202 -1.98187174227423
 8 -6.42051644714471 -4.54075177357736 -2.65001126622662
 6 -5.09309787188719 -3.51903995659566 -0.87866018581858
 6 -5.32855033243324 -4.53630907200720  0.18749242104210
 8 -5.72929870147015 -4.46322533063306  1.31104746814681
 8 -5.05842554075408 -5.75541673807381 -0.24624776937694
 6 -5.42711027522752 -6.94037589088909  0.53356518631863
 6  2.25257623082308 -5.20916203640364  0.66695064946495
 6  3.38971350635064 -4.19294945584558  1.02319021882188
 6  4.05359474967497 -3.38840171027103  0.15215885088509
 6  3.74373871277128 -3.27652259355936 -1.42138164266427
 6  5.20333675947595 -2.42617766536654  0.47490128892889
 6  6.54660953225323 -2.85568849404940 -0.01055958855886
 6  7.72990831443144 -2.00266962246225  0.49070476097610
 6  9.10472129342934 -2.17663249684969 -0.07236501900190
 6  9.66821320302030 -3.46690733113311  0.24647118941894
 6  10.10740131923192 -1.02241247864786  0.40202271777178
 6  11.43960126252625 -1.00401000790079 -0.33863262946295
 6  12.31425911451145  0.16348097559756  0.06133298089809
 6  13.59211166696670  0.38709357925793 -0.63613837703770
 6  14.60415871487149 -0.61450085268527 -0.39178332923292
 6  14.18730467006701  1.84655082668267 -0.16560581538154
 6  15.44383857425743  2.28340636883688 -0.99540453545355
 6  16.03982656705670  3.60786553935394 -0.57707832103210
 6  17.32102735183518  4.04196203780378 -1.25486942214221
 6  17.11372396209621  4.23668856055606 -2.81243346754675
 6  17.96883628972897  5.22625789108911 -0.64957441634163
 1 -2.76180190299030  1.18787306270627  3.65368583698370
 1 -6.40326830563056  5.62522790319032  0.92105109680968
 1 -8.77970837803780  1.21510181308131 -3.04174965376538
 1 -3.76208727352735 -3.09864517991799  1.96998505930593
 1 -1.83590071397140 -1.08758642024202  2.47623889999000
 1 -2.68175795489549 -2.60725388658866  4.01205474947495
 1 -3.11695248794879 -0.93407331173117  4.67757978777878
 1 -4.49870238193819 -1.91732081298130  4.15641959245925
 1 -2.31471678537854 -3.10397991529153 -0.25744636843684
 1 -1.47191502390239 -1.60675979227923  0.36818494009401
 1 -0.65234066756676 -3.04586588218822  2.25756997569757
 1 -1.70524524612461 -4.36934406560656  1.85615741374137
 1 -1.90705081888189  3.39783930833083  4.20206611631163
 1 -2.70732172227223  5.01322852885289  4.61879813751375
 1 -3.30280327532753  3.30540153765377  5.27564257025703
 1 -5.48733179707971  6.48530272467247  2.55519084048405
 1 -10.10008914241424  2.85255591269127 -3.11304455615562
 1 -10.41815261316132  4.48901274537454 -2.81319160986099
 1 -9.72007180698070  3.88709712371237 -5.36975217751775
 1 -8.14512402180218  4.70646039143914 -4.46692664766477
 1 -8.48765861486149  3.00591995079508 -4.99157908270827
 1 -8.74354194379438 -0.65350589348935 -4.53668466676668
 1 -8.15366634963496 -2.30325373047305 -4.34105674267427
 1 -9.57989806930693 -1.79089591299130 -3.36441334803480
 1 -4.32660001740174 -3.94677950455046 -1.30486377327733
 1  2.41185231823182 -6.13305124812481  1.00069602650265
 1  2.08662940634063 -5.04521149724972 -0.22541599119912
 1  3.71060318261826 -4.11560084188419  2.05245025262526
 1  2.77058204490449 -3.62920854195420 -1.73199574057406
 1  3.96536114941494 -2.35671923122312 -1.78441091159116
 1  4.41439361336134 -3.87599132833283 -1.92726165206521
 1  4.92616265716572 -1.36246267026703  0.22100398389839
 1  5.14234276157616 -2.38491012341234  1.65610049034903
 1  6.54264179087909 -3.93724691679168  0.22123000700070
 1  6.46418657905791 -2.69951756075608 -1.07052764826483
 1  7.45349428072807 -0.83529685478548  0.31624887038704
 1  7.80766286918692 -2.07050363346335  1.54239862516252
 1  9.06646075537554 -2.04285256045605 -1.23952729082908
 1  8.86145066376637 -4.33352212361236  0.25903211081108
 1  10.47660700150015 -3.60373457555756 -0.47621773527353
 1  10.00488955035503 -3.35183627512751  1.39041948464846
 1  9.81174032463247  0.00124585078508  0.06842220602060
 1  10.14024412191219 -1.18267480138014  1.50446998699870
 1  12.04694983628363 -1.89257928982898 -0.36851122432243
 1  11.18759484618462 -0.76706961186119 -1.51473280688069
 1  11.62701373487349  0.98074250345034 -0.05698525372537
 1  12.28881370467047  0.20560175157516  1.17296557675768
 1  13.52275907660766  0.46390082238224 -1.61984422312231
 1  15.11239057735773 -0.59208742144214  0.65338101810181
 1  14.13604917591759 -1.72098111441144 -0.41003732523252
 1  15.45855684408441 -0.87562076027603 -1.22878977147715
 1  13.55646384058406  2.47879249834984 -0.30496228392839
 1  14.41257795809581  1.77012730193019  0.74969218311831
 1  16.09764141994199  1.29642825552555 -0.76807329802980
 1  15.41781736513651  2.35677959075908 -2.13172455215522
 1  15.33814521912191  4.29558493649365 -0.73139513761376
 1  16.15497826792679  3.56854349574957  0.53781368176818
 1  18.04767844924492  2.99864135533553 -1.20394947454745
 1  16.46418713911391  5.24077060596060 -2.95085744554455
 1  18.22233815731573  4.27409692299230 -3.33093769886989
 1  16.52919311951195  3.34797586758676 -3.06187422202220
 1  18.42084813201320  5.06694791229123  0.23892555675568
 1  18.78310583288329  5.54337849004901 -1.33690060446045
 1  17.47516906780678  6.12851235433543 -0.65262932423242
 1 -5.32824812621262 -7.77754718781878 -0.09992353005300
 1 -6.55785021532153 -6.87059414601460  0.80596410391039
 1 -4.83154132273227 -6.93480505610561  1.43868832543254
 8 -7.80491808340834  6.92895939673967 -0.42217000100010
 1 -8.91550984808481  6.62345799069907 -1.92630831363136

