%nproc=4
%Mem=4GB
# td=(NStates=1) iop(3/107=0140000000,3/108=0140000000) iop(3/107=0140000000,3/108=0140000000) CAM-B3LYP/6-31G(d,p) 

TD

0 1
12 -5.63056456305631  1.21413628792879  0.26803540874087
 6 -5.05951633883388 -2.20422888618862 -0.35112197899790
 6 -3.59610839993999  1.07720800560056  2.83130850415042
 6 -6.17508630433043  4.59194245844584  0.61629183798380
 6 -7.99324509160916  1.19982083278328 -2.28190586408641
 7 -4.44781903520352 -0.31799999179918  1.14447578637864
 6 -4.25517904540454 -1.64349805140514  0.70113246284628
 6 -3.23157628212821 -2.38024132693269  1.50386475017502
 6 -2.98662183318332 -1.40720361126113  2.71046760286029
 6 -3.71347877527753 -0.15977860556056  2.23164774997500
 6 -3.59166220562056 -1.95207864926493  4.01171387078708
 6 -1.97732292549255 -2.59309671897190  0.63892919841984
 6 -0.96107775127513 -3.46412399299930  1.47676126412641
 6  0.21920702120212 -3.86032987368737  0.58315651035104
 8  0.49259932423242 -3.43776108970897 -0.47411364556456
 8  1.02467931363136 -4.74514413171317  1.23573818111811
 7 -4.92244306060606  2.60766014291429  1.50913114481448
 6 -4.09905199499950  2.38784620632063  2.48249885318532
 6 -3.78994849854986  3.64324282648265  3.09561011721172
 6 -4.54412496519652  4.58928045634563  2.57806707800780
 6 -5.37135323952395  3.94458255345535  1.53516960926093
 6 -2.66683204630463  3.70113748954895  4.28784297369737
 6 -4.62937946854685  6.04740216071607  2.85499500430043
 8 -3.84176422442244  6.58944683268327  3.65323922382238
 7 -6.88142194209421  2.60599049484949 -0.73184484078408
 6 -6.98405111991199  3.95627524472447 -0.35187687638764
 6 -7.89293447984798  4.69050577537754 -1.23006711621162
 6 -8.37241669496950  3.68648557845785 -2.17133607800780
 6 -7.68298718921892  2.40827683648365 -1.76534248074807
 6 -8.19038202910291  6.05811572097210 -1.21236074487449
 6 -9.33132749604961  3.91117151535154 -3.24636926972697
 6 -8.76722817651765  4.03397154335434 -4.58562496649665
 7 -6.49072749174917 -0.17470248794879 -0.89379447144714
 6 -7.45082461206121 -0.10033610221022 -1.96510072077208
 6 -7.63549105630563 -1.28491019461946 -2.66819934253425
 6 -6.77828737753775 -2.19243881568157 -2.06463262896290
 6 -6.07587600300030 -1.47818138323832 -1.05448157855786
 6 -8.75247070487049 -1.55018514451445 -3.67713460966097
 6 -6.26801046814681 -3.61577716161616 -2.02763631873187
 8 -6.63007740324032 -4.61103880228023 -2.58918518361836
 6 -5.03151171327133 -3.62022007460746 -0.91597391719172
 6 -5.24806228362836 -4.68591403250325  0.08273194499450
 8 -5.59257502910291 -4.59252826092609  1.22520888428843
 8 -5.06515621382138 -5.85734693109311 -0.48091123572357
 6 -5.08000556475648 -6.90726257955796  0.44960679047905
 6  2.36642761596160 -4.94743586378638  0.60550450485048
 6  3.36656119111911 -3.99258941984198  0.84430233003300
 6  4.03349273947395 -3.18210108020802  0.01981561656166
 6  3.84109844874487 -3.07878281958196 -1.45897540204020
 6  5.16865329112911 -2.27467251485149  0.58127192599260
 6  6.54958983028303 -2.54550747594759  0.03195466286629
 6  7.61442676627663 -1.68570792629263  0.61854754525453
 6  8.94242506380638 -1.98629346294629 -0.06353413591359
 6  9.51569795149515 -3.33486412681268  0.19469601190119
 6  9.91745232433243 -0.86329656705671  0.31982449794980
 6  11.30021732413241 -0.74841444834483 -0.41272003820382
 6  12.23037072567257  0.32871749924992  0.17429427702770
 6  13.66389884568457  0.36776164606461 -0.44745950915091
 6  14.50848914791479 -0.80752015461546 -0.12247639853985
 6  14.33069900950095  1.72863903550355 -0.18553780858086
 6  15.48232242264226  2.09317734593459 -1.07263225822582
 6  16.15511809620962  3.38416316911691 -0.60900151335134
 6  17.37830307940794  3.94248208980898 -1.29716365156516
 6  17.26507909760976  3.95001989368937 -2.85781800600060
 6  17.85366477257726  5.31743700900090 -0.79232869176918
 1 -2.98452417521752  0.92426670207021  3.79689015741574
 1 -6.19379735853585  5.66781216161616  1.00964995669567
 1 -8.58627903510351  1.09599990289029 -3.20151563036304
 1 -3.65791685648565 -3.36204151955196  1.94733279407941
 1 -2.05052217611761 -1.07187484908491  2.98120939703970
 1 -3.22090186928693 -2.84037719891989  4.43278682268227
 1 -3.29206999969997 -1.14778468286829  4.77750978077808
 1 -4.83563607530753 -2.11723080398040  4.03203715421542
 1 -2.03973928762876 -3.17609712701270 -0.44114473827383
 1 -1.37604543694369 -1.53165228152815  0.58543666526653
 1 -0.35806123962396 -2.92378367396740  2.34247846654666
 1 -1.45017973957396 -4.37503463466347  1.95720751875187
 1 -1.65857597139714  3.78424794919492  3.98293420312031
 1 -2.80274126422642  4.86721392739274  4.85967222492249
 1 -2.84301729672967  2.88051904940494  5.04062906890689
 1 -5.30827389128913  6.59481367576758  2.16804212561256
 1 -10.09628876237624  2.91596225332533 -3.05075832753275
 1 -9.93060385828583  4.89242308640864 -3.07634792549255
 1 -9.45015481528153  4.17451586558656 -5.33191839413941
 1 -8.13901341074107  4.91546129152915 -4.55908586358636
 1 -8.14316416541654  3.15703506230623 -4.84728465326533
 1 -8.14538212781278 -0.97031757465747 -4.48857985628563
 1 -8.80002098509851 -2.62788619371937 -3.85804844184418
 1 -9.71920199969997 -1.25779260266027 -3.47569447614761
 1 -4.13183054045404 -3.83395822242224 -1.34984827172717
 1  2.52743387638764 -6.03435137813781  0.81068702560256
 1  2.02698344174417 -4.88018499459946 -0.50475392499250
 1  3.66658878117812 -3.92826210801080  1.82683769136914
 1  2.78171315801580 -3.23837945904590 -1.64216675767577
 1  4.21501611491149 -2.18160171947195 -1.78440091059106
 1  4.59333150715072 -4.02650637983798 -1.76709563546355
 1  4.81841188208821 -1.24243066706671  0.28329021252125
 1  5.33418194549455 -2.32919455185519  1.68705358565857
 1  6.82789031573157 -3.56676986908691  0.35283316731673
 1  6.46487664806481 -2.64805241424142 -1.10354094959496
 1  7.53340227152715 -0.63458678377838  0.45204244974497
 1  7.64699680258026 -1.87802438553855  1.82743712901290
 1  8.82367647694769 -2.07884615981598 -1.14587792589259
 1  9.05960047874787 -4.19583835523552 -0.14383817621762
 1  10.58995833663366 -3.57256145824583 -0.34727484098410
 1  9.69829889128913 -3.68757984948495  1.36089653235324
 1  9.62509165976598  0.21438716491649  0.21096646044604
 1  10.15983608110811 -0.91414794869487  1.32165170517052
 1  11.88721386268627 -1.74237426932693 -0.48796316951695
 1  10.94010009670967 -0.52335524042404 -1.41363269686969
 1  11.74726576007601  1.22114654385439  0.00755119991999
 1  12.61690651395139  0.23867505890589  1.31378965916592
 1  13.38194499519952  0.00225465776578 -1.61288352705271
 1  14.47663700200020 -1.02571078377838  1.02211789178918
 1  14.12009758075808 -1.67027604390439 -0.49883620512051
 1  15.42574356275628 -0.68266146434643 -0.43337022952295
 1  13.56273446764676  2.59586420552055 -0.23184497219722
 1  14.70093679397940  1.58547883708371  0.85906312021202
 1  16.47234889068907  1.44744335703570 -0.87217370807081
 1  15.20038562196220  1.84283819661966 -2.12160354005401
 1  15.52174357895790  4.28310368836884 -0.78588058615862
 1  16.37923069316932  3.40238688008801  0.55120502090209
 1  18.21311499289929  3.15940743194319 -0.98627770737074
 1  16.54875559595959  4.62316884578458 -3.30075243504350
 1  18.37217314081408  4.10564007730773 -3.26084068916892
 1  16.81483168336834  3.07235830583058 -3.24676271087109
 1  17.91737778497849  5.21392260976098  0.34940660486049
 1  18.72684020632063  5.75401955415542 -1.25605251965196
 1  16.92737428832883  5.94687419051905 -0.87171123242324
 1 -4.94548985038504 -7.72333176627663 -0.26064960266027
 1 -6.14527895819582 -7.05116220282028  0.75527903540354
 1 -4.22312048064807 -6.82871444704470  1.15391984858486
 8 -7.76822441404140  6.96278277907791 -0.50705848984898
 1 -9.04116241334133  6.31317696259626 -1.89428511131113

