%nproc=4
%Mem=2GB
# td=(NStates=1) iop(3/107=0140000000,3/108=0140000000) iop(3/107=0140000000,3/108=0140000000) CAM-B3LYP/6-31G(d,p) 

TD

0 1
12 -6.93525609770977  0.63373251735174  0.15869348884888
 6 -4.57976508300830 -2.08939736153615  0.40779105610561
 6 -4.14882669806981  2.66439807290729  0.90208308990899
 6 -8.92852555725573  3.30864488858886 -0.33570307200720
 6 -9.27887598519852 -1.60370339993999 -0.69549960866087
 7 -4.73615868776878  0.35873527122712  0.61496052815282
 6 -4.00652791839184 -0.82983269006901  0.63733428882888
 6 -2.45180859945995 -0.60002176137614  0.97667973027303
 6 -2.46761672747275  0.86936708550855  1.37619978247825
 6 -3.91229749264927  1.39167925312531  0.92090686538654
 6 -2.16127241294129  1.11430322622262  2.77045160796080
 6 -1.43643239163916 -0.99161172457246 -0.01643031673167
 6 -0.09265738403840 -1.14735644224422  0.40108918241824
 6  0.84758583778378 -1.37480471737174 -0.99227740154015
 8  0.60513058115812 -0.83575618811881 -2.04158514871487
 8  1.78073836043604 -2.28431873047305 -0.43657858035804
 7 -6.60220196239624  2.52553292329233  0.36619036693669
 6 -5.46164672557256  3.18124676787679  0.54141043724372
 6 -5.74225844104410  4.82890257505750  0.65221008960896
 6 -7.02648336173617  4.89679577007701  0.22634921822182
 6 -7.79184088798880  3.40143895229523  0.05949078047805
 6 -4.63128804910491  5.73406083658366  1.02373004100410
 6 -7.85073663496350  6.07032395249525  0.27915743944394
 8 -7.30904482068207  7.13356497309731  0.65899375617562
 7 -8.83311686518652  0.79323018221822 -0.32651530063006
 6 -9.49627329972997  1.94210894619462 -0.50694174647465
 6 -10.93165979627963  1.68263813491349 -0.92677845904590
 6 -10.98225258275827  0.30971187558756 -1.07441829732973
 6 -9.67044870817082 -0.26197436063606 -0.66310838753875
 6 -11.79045582088209  2.68656484958496 -1.08779343014301
 6 -12.14511763226323 -0.52298586088609 -1.47747588128813
 6 -12.01481834393439 -0.94003616881688 -2.79183197789779
 7 -7.02479896279628 -1.26779934123412 -0.00927357185719
 6 -8.22877553915392 -2.15415541224122 -0.35482868086809
 6 -7.74682226732673 -3.55049237163716 -0.47474848494849
 6 -6.48290391159116 -3.54651381228123 -0.09287754835484
 6 -6.10424671337134 -2.20407922242224  0.23251943624362
 6 -8.66205472897290 -4.78179555735574 -1.00870368626863
 6 -5.24038024252425 -4.44568036613661  0.01619964566457
 8 -5.35750749944995 -5.58739927822782 -0.02865235863586
 6 -4.04481820722072 -3.50462102130213  0.30112475967597
 6 -3.48666217711771 -3.73974014951495  1.67180689368937
 8 -3.97319255935594 -3.93266000080008  2.74487315711571
 8 -1.95055673057306 -3.96131243654365  1.54015395459546
 6 -1.20615913801380 -4.12315740584058  2.91267569276928
 6  2.96988888168817 -2.27503268016802 -1.21748299239924
 6  4.04082785018502 -1.31669867096710 -0.77239277157716
 6  5.16716747214721 -1.20993786518652 -1.37229343094309
 6  5.50515449924993 -1.84578771347135 -2.58150513271327
 6  6.27822164676468 -0.18614626752675 -0.95031158965897
 6  7.46767546154615 -0.93167894999500 -0.40037677497750
 6  8.45231779207921  0.29270490509051  0.10737225672567
 6  9.74827791719172 -0.46479339963996  0.47073876817682
 6  9.52729024532453 -0.93369218391839  2.18495286408641
 6  11.01702403240324  0.58042289648965  0.27524236263626
 6  12.23178844934493 -0.04159285208521  0.26849516071607
 6  13.43692523512351  0.96214348904890  0.32502540094009
 6  14.88604493969397  0.42335561366137  0.26722138423842
 6  15.24206919501950 -0.39326160666067  1.74064398839884
 6  15.87315694409441  1.54916981898190 -0.05914270897090
 6  17.24625410351035  0.87795301970197 -0.33405027892789
 6  18.27413696109611  2.08670586178618 -0.74937508430843
 6  19.74686688778878  1.42614110891089 -0.85016510021002
 6  20.04693449474948  0.53078850915092 -1.85964175537554
 6  21.02609977887789  2.58828024602460 -0.76517161306131
 1 -3.30859149744974  3.30462171317132  1.25435483718372
 1 -9.73243722622262  4.23197228232823 -0.20817445134513
 1 -9.87042953455346 -1.79188958825883 -1.14162698859886
 1 -2.26534905170517 -0.94234185198520  1.97308735703570
 1 -1.88632797139714  1.21584206040604  0.71671812521252
 1 -1.11835321902190  0.77020533493349  3.06016672777278
 1 -2.53740191409141  2.05665424182418  3.22524864266427
 1 -2.63175550805081  0.25082296759676  3.75599146824683
 1 -1.75366438673867 -1.68383965696570 -0.72943072987299
 1 -1.35270043904390 -0.20712218511851 -0.82521231203120
 1  0.32437043534353 -0.13838527182718  1.00692655785579
 1 -0.05531925172517 -2.06474280808081  1.27094732683268
 1 -3.69158368876888  5.30282811071107  0.63829878757876
 1 -4.74393467406741  6.80737341324132  0.68450535663566
 1 -4.76401742994299  5.62265122612261  2.29392716501650
 1 -8.63293630773078  5.99092420162016 -0.39355573137314
 1 -11.81781133473347 -1.35625649314932 -1.07212163936394
 1 -13.05171138613861  0.04618101790179 -1.18849648604860
 1 -12.66766458955896 -1.80543265866587 -3.08588570567057
 1 -12.12536950075008 -0.15275785428543 -3.50952312181218
 1 -10.89123594799480 -1.47309062606261 -2.84284089148915
 1 -9.10747993129313 -4.71429798539854 -2.10798302630263
 1 -7.98349356395640 -5.79493950655066 -1.13592324422442
 1 -9.41526880688069 -4.41971393259326 -0.38397378787879
 1 -3.20427000840084 -3.46119984488449 -0.33991229802980
 1  3.14612622802280 -3.32971024482448 -1.35250096719672
 1  2.87804209300930 -2.21957787278728 -2.43459369466947
 1  3.84342166986699 -0.61720446884688  0.29532313391339
 1  4.81743480048005 -1.66463993649365 -3.65201531653165
 1  6.47533111151115 -1.83660233563356 -3.37682890679068
 1  4.93019684708471 -2.89774238853885 -2.58097228102810
 1  6.57140756265627  0.41496683408341 -1.79746236343634
 1  6.01822693209321  0.62625817361736 -0.25128939233923
 1  7.35965714461446 -1.88561675877588  0.47254897649765
 1  8.09684508290829 -1.38615740604060 -1.11088056395640
 1  8.37165929732973  1.18757935273527 -0.83299608490849
 1  8.01727022512251  0.69707489568957  0.92170787918792
 1  9.96276872397240 -1.28251569526953 -0.27655481308131
 1  8.73264550885088 -1.68107692339234  2.72432079287929
 1  10.57333340274027 -1.78945282648265  2.43551544294430
 1  9.37552076367637 -0.08932015441544  2.96583788888889
 1  10.81103474127413  1.08867162706271 -0.95156232783278
 1  10.74535428202820  1.65125400100010  1.13947782808281
 1  12.50716825902590 -0.67486992649265  1.31286496979698
 1  12.21006316031603 -0.59421764236424 -0.75141813931393
 1  13.34043891389139  1.58404794979498 -0.44597350195020
 1  13.69714175897590  1.78275252655265  1.16617240664066
 1  14.94138556435644 -0.50165768176818 -0.53490168136814
 1  15.51058095799580  0.20654104960496  2.72456522952295
 1  14.57883515701570 -1.12984065596560  2.09292679077908
 1  16.28319535263526 -0.75710929402940  1.68153463116312
 1  15.39116025092509  2.10229022242224 -0.77303727842784
 1  15.72364639723972  2.19145868136814  1.02144046724672
 1  17.64587590269027  0.39788295889589  0.55639582628263
 1  17.07251477567756  0.12748091729173 -1.29160053745375
 1  18.02620762786279  2.49884643244324 -1.87781076937694
 1  18.23518351445145  2.97615152205220 -0.11679500900090
 1  19.98046060726073  1.10515336153615  0.47749109990999
 1  19.69033735173517  0.85491054065407 -3.05997812301230
 1  21.08564285428543  0.03943214141414 -1.92965709910991
 1  19.22395512251225 -0.28155587398740 -2.20565864056406
 1  21.03198997759776  3.28086766586659  0.21592234583458
 1  22.06722446274627  2.31053763646365 -0.92115483048305
 1  20.84152080498050  3.45318280548055 -1.33683848014802
 1 -0.24888051315132 -4.88822157155716  2.59158750675067
 1 -2.02072175317532 -4.57336461016102  4.14248488508851
 1 -0.81895590889089 -3.32636111321132  3.44644879807981
 8 -11.55983435773577  3.87262206140614 -0.97026884058406
 1 -12.88925943744375  2.42304354445444 -1.50938154315431

