%nproc=4
%Mem=4GB
# td=(NStates=1) iop(3/107=0140000000,3/108=0140000000) iop(3/107=0140000000,3/108=0140000000) CAM-B3LYP/6-31G(d,p) 

TD

0 1
12 -5.50856236283628  1.24790966526653  0.13448205340534
 6 -5.03817420462046 -2.13178164146415 -0.36372323912391
 6 -3.35920470957096  1.23621390619062  2.80419579287929
 6 -6.13314210991099  4.54358762296230  0.64282449124912
 6 -7.90612637973797  1.17676852755276 -2.41847952145215
 7 -4.35348960226023 -0.15629382118212  0.99767110591059
 6 -4.26722024952495 -1.53804750635063  0.68702105170517
 6 -3.36514963946395 -2.25567887068707  1.47216157985799
 6 -2.97467063806381 -1.36276916781678  2.63477003310331
 6 -3.53795122252225  0.03232060436044  2.14356894209421
 6 -3.56592963236324 -1.62928637003700  4.04605730513051
 6 -2.03549874307431 -2.78759616891689  0.67967327282728
 6 -0.98700034353435 -3.57008458905891  1.51622521052105
 6  0.25858095859586 -3.89249309000900  0.64552274697470
 8  0.37784784908491 -3.74213152675268 -0.59191542574257
 8  1.11616846254625 -4.68357797509751  1.31532613991399
 7 -4.93472428872887  2.60643001990199  1.49899013071307
 6 -3.98511060086009  2.47427484918492  2.54597520082008
 6 -3.85107461116112  3.60732923512351  3.24572512871287
 6 -4.60917146984699  4.62076360466047  2.67064633593359
 6 -5.30679678387839  3.93752184738474  1.55415150745075
 6 -2.71654701780178  3.73711108690869  4.32795698509851
 6 -4.65351188178818  6.06507392789279  2.97551705650565
 8 -4.09544959295930  6.56179406740674  3.86698059795980
 7 -6.81075487538754  2.60927082288229 -0.69665132143214
 6 -6.87523023782378  3.94488410561056 -0.39618130683068
 6 -7.95132031843184  4.55683240804080 -1.18224233373337
 6 -8.41548100140014  3.64225115501550 -2.02499144354435
 6 -7.67078596909691  2.40759676847685 -1.73238918541854
 6 -8.23909690059006  5.93399330873087 -1.28971848064806
 6 -9.44517888118812  3.79677007520752 -3.13814844764476
 6 -8.82133358705871  4.09022716891689 -4.51600800480048
 7 -6.34853327232723 -0.14884990269027 -1.09843493549355
 6 -7.29022855245525 -0.02858892749275 -2.06097030773077
 6 -7.58325583278328 -1.32218392199220 -2.72123464606461
 6 -6.60939048784878 -2.19857942974297 -2.15731189688969
 6 -5.98087650305030 -1.36507007210721 -1.12017814821482
 6 -8.55597105490549 -1.74673479947995 -3.81302819901990
 6 -6.15893956105611 -3.54992057595760 -2.01510506560656
 8 -6.46820121562156 -4.50682838123812 -2.66177244234423
 6 -4.90566912901290 -3.56850490309031 -0.82068438823882
 6 -5.26198367576758 -4.61461690279028  0.19731340314031
 8 -5.88000377197720 -4.39120812891289  1.26821318471847
 8 -4.89606930513051 -5.75154635103510 -0.28424156875688
 6 -5.16625418961896 -6.82783463676368  0.61229305910591
 6  2.31004197739774 -5.15060618081808  0.56666062046205
 6  3.39069360436044 -4.12538269916992  0.89738763856386
 6  3.97883727392739 -3.27007987808781  0.11885552055206
 6  3.58929326822682 -3.17164210551055 -1.35467497199720
 6  5.07608403420342 -2.50999604720472  0.59313311211121
 6  6.44365923722372 -2.69543246844684 -0.03899243184318
 6  7.56847217081708 -1.88442779827983  0.44821051155116
 6  8.99823064436444 -1.96890172377238 -0.19247703020302
 6  9.63901028272827 -3.32863350375037  0.14982152445245
 6  9.90905148424842 -0.82569280668067  0.19746226172617
 6  11.32075937833783 -0.86901650855085 -0.38595736193619
 6  12.14555224382438  0.37357198469847  0.02234908250825
 6  13.51572402820282  0.42072694259426 -0.56814157735774
 6  14.40731903090309 -0.85551495409541 -0.39276342724272
 6  14.22108804840484  1.72814898649865 -0.17990724552455
 6  15.54420861126112  2.10784881308131 -0.95309030403040
 6  16.13098568296830  3.45318007080708 -0.39776038923892
 6  17.38463371247125  3.94703254485449 -1.23333726892689
 6  17.08466105580558  4.08718361006101 -2.72799502370237
 6  17.85255466156616  5.30514577987799 -0.81240069896990
 1 -2.88649437223722  1.29002327772777  3.83494396279628
 1 -6.33545152395240  5.57460284068407  0.77072606430643
 1 -8.54389479667967  1.27033733663366 -3.17821330013001
 1 -3.91727279207921 -3.21253656905691  1.86706476727673
 1 -1.88648577247725 -1.41319898149815  2.75543681978198
 1 -3.27681746084608 -2.66312947414741  4.35368891289129
 1 -2.99404019671967 -0.95014491889189  4.81578360816082
 1 -4.81004351605161 -1.45463454435444  4.18455240574057
 1 -2.35267058075808 -3.35172468976898 -0.26203682748275
 1 -1.48374620702070 -1.85576469276928  0.36562468406841
 1 -0.51211664516452 -3.01028232383238  2.32556677537754
 1 -1.33979870147015 -4.54816194739474  1.96943874187419
 1 -1.74944505830583  3.56396592099210  4.03232914261426
 1 -2.77659864996500  4.73407061306131  4.92625888358836
 1 -2.91442443744374  3.01789278677868  5.32172717871787
 1 -5.33821688558856  6.66350054445445  2.36401172257226
 1 -10.46228536203620  3.00973163026303 -3.22261551325133
 1 -10.17723852175218  4.50996484058406 -2.93537382808281
 1 -9.52498229802980  4.24946336033603 -5.17023222552255
 1 -8.41333084248425  5.24909465486549 -4.52580253525352
 1 -8.22366221522152  3.11252061086109 -4.70094001880188
 1 -8.38900649024902 -1.17849839273927 -4.69897089538954
 1 -8.36609759275928 -2.88161156625663 -4.10894353135313
 1 -9.58120820032003 -1.64187101050105 -3.31618852555255
 1 -4.02273963136314 -3.78238306490649 -1.54889817671767
 1  2.44232536553655 -6.23723166616662  0.92170812771277
 1  2.09569031243124 -5.38415539163916 -0.53018646824682
 1  3.88104022632263 -4.28476775857586  1.89094410201020
 1  2.49181416811681 -3.29663528462846 -1.48220076107611
 1  4.00246485978598 -2.16189974927493 -1.63371584208421
 1  4.03750592459246 -3.99714344354435 -1.95802472837284
 1  4.75236527742774 -1.46870329432943  0.55321720522052
 1  5.22076060336034 -2.49645127752775  1.82884776507651
 1  6.67486501320132 -3.65279847194719  0.12559044304430
 1  6.24512467286729 -2.85214282328233 -1.11379197469747
 1  7.25886481778178 -0.80350367546755  0.13086033153315
 1  7.69849195209521 -1.96187277037704  1.33906829212921
 1  8.78321243054305 -1.68851712691269 -1.30106344444444
 1  8.90330484918492 -4.05933470487049 -0.32514630703070
 1  10.68720806160616 -3.59927412951295 -0.27160727422742
 1  9.56576563796380 -3.30742183368337  1.18196863956396
 1  9.54949410001000  0.22544827102710  0.08541390519052
 1  9.77400749824982 -0.81747828172817  1.30870041004100
 1  11.73573871517152 -1.82194222612261 -0.10382475567557
 1  11.18316440314032 -0.82662556745675 -1.54444577817782
 1  11.68096913041304  1.27819224842484  0.03153359815982
 1  12.33684850815082  0.31169236063606  1.09217749794980
 1  13.28450525122512  0.49087351965197 -1.64834707340734
 1  14.66585592389239 -0.75951416411641  0.58720440044004
 1  13.84758032903290 -1.78598761506151 -0.60616693819382
 1  15.21648263666367 -0.77233043124312 -0.93138003050305
 1  13.27781597579758  2.53959857895790 -0.13514530223022
 1  14.47645434573457  1.57794808400840  0.94510172407241
 1  16.29066072187219  1.39554816751675 -0.70387687838784
 1  15.09446502990299  2.11614552735274 -1.97823920362036
 1  15.22786419101910  4.22835821382138 -0.25557755585559
 1  16.32897566766677  3.50477711911191  0.67048694909491
 1  18.16191987338734  3.22080357155716 -1.01896097569757
 1  16.56400712111211  4.93543007190719 -3.04614697449745
 1  18.15086100960096  4.11486099939994 -3.29301390649065
 1  16.67143734393439  3.14597566756676 -3.03247128172817
 1  17.82679872707271  5.31231244874487  0.34525618981898
 1  18.81561908420842  5.56888104030403 -1.16686360076008
 1  17.12444399529953  6.19487899099910 -0.96222028332833
 1 -5.25618091949195 -7.92308174127413 -0.01027456515651
 1 -6.13245767606761 -6.56379346594660  1.28938244574457
 1 -4.23119128772877 -7.02131370697070  1.48741319791979
 8 -7.76379397099710  6.83964046484649 -0.55394317831783
 1 -8.98219651675167  6.17602324722472 -2.23205888868887

