%nproc=4
%Mem=2GB
# td=(NStates=1) iop(3/107=0140000000,3/108=0140000000) iop(3/107=0140000000,3/108=0140000000) CAM-B3LYP/6-31G(d,p) 

TD

0 1
12 -6.85882845494549  0.57486663076308  0.16687430693069
 6 -4.40142724922492 -1.91080950275028  0.46584686168617
 6 -4.42928474387439  2.96065769886989  0.92317519911991
 6 -9.05528823352335  3.01024504860486 -0.14280378207821
 6 -9.29100719831983 -1.76992002160216 -0.56134619331933
 7 -4.79247431933193  0.44475387308731  0.51127015911591
 6 -3.85239250485049 -0.68326803360336  0.51047160256026
 6 -2.37675109370937 -0.32034379357936  0.80189225152515
 6 -2.66903686948695  1.23725387418742  0.89338150065006
 6 -4.07450371327133  1.60986107130713  0.72353712841284
 6 -2.33747003270327  1.40617241314131  2.38485304810481
 6 -1.58566731513151 -0.81725428882888 -0.45213388708871
 6 -0.06625474377438 -1.03718542514251  0.15824489798980
 6  0.91954303350335 -1.23116035293529 -0.99445761956196
 8  1.10813088118812 -0.59102171467147 -2.20372136233623
 8  1.88077836443644 -2.03038333693369 -0.59519444194419
 7 -6.73616535873587  2.55906627662766  0.32585633353335
 6 -5.54425498639864  3.28829747294729  0.56437273347335
 6 -6.02631684688469  5.03179286408641  0.59621449004900
 6 -7.52382309570957  4.84792088258826  0.39733631693169
 6 -7.82400410431043  3.48073688208821  0.18738356975698
 6 -5.16457137743774  6.08426585708571  0.92666033403340
 6 -8.34087564886489  6.08201512161216  0.27458698239824
 8 -7.99077299349935  7.16758837543754  0.51661951875188
 7 -8.76599015251525  0.60467132633263 -0.21347399649965
 6 -9.62878655105511  1.69220395569557 -0.18007906020602
 6 -10.90075670597060  1.31773164426443 -0.66374215541554
 6 -11.03842820032003  0.02164306870687 -0.75664652015201
 6 -9.54378604190419 -0.48575673887389 -0.61800387708771
 6 -12.03909068436844  2.29431562466247 -0.71830648144815
 6 -12.30999411991199 -0.77796135843584 -0.97424555825583
 6 -12.53219008110811 -0.58706087128713 -2.64265706040604
 7 -6.82065854875488 -1.34244680598060  0.06267362286229
 6 -8.02424508610861 -2.29902989968997 -0.24564776277628
 6 -7.51089867496750 -3.73111043344334 -0.25651666176618
 6 -6.06496211741174 -3.53126228712871 -0.27556581718172
 6 -5.78834512321232 -2.06871568606861  0.12821900620062
 6 -8.27915643914391 -5.07029440724072 -0.40254307020702
 6 -4.97547375187519 -4.41756755485549  0.18018604430443
 8 -4.86037778647865 -5.59709024732473  0.14618512511251
 6 -3.79423314871487 -3.21677223642364  0.44560920812081
 6 -2.90905441634163 -3.55861203670367  1.73743345634563
 8 -3.36342158225823 -3.65663239803980  2.93869253905391
 8 -1.58981065596560 -3.59906621192119  1.48981892109211
 6 -0.79130765286529 -3.95167025712571  2.86313073827383
 6  3.00939283208321 -2.33135831273127 -1.42951419551955
 6  4.15395916331633 -1.38657565866587 -1.06781231353135
 6  5.02225298069807 -1.04021089248925 -1.90360656225623
 6  5.11031501530153 -1.51919505420542 -3.26363334553455
 6  6.04436826142614 -0.14047170007001 -1.38111466996700
 6  7.23680237423742 -0.67115289738974 -0.94909164646465
 6  8.45410797109711  0.40502613721372 -0.84804328482848
 6  9.68186127552755 -0.38064498479848 -0.15752405810581
 6  9.35670318661866 -0.96292510721072  1.13959832863286
 6  10.82921525152515  0.71027588178818 -0.00611577317732
 6  12.19721499199920 -0.08746743954395  0.26181449264926
 6  13.43068461106111  0.98055533023302  0.03911681008101
 6  14.75701203640364  0.26479975807581  0.44209887198720
 6  14.74024901300130 -0.45119740024002  1.78549847384738
 6  15.97888751715172  1.11121602360236  0.17084028932893
 6  17.39725920402040  0.44186941134113  0.25144827092709
 6  18.52916246364637  1.55230242144214 -0.01045119191919
 6  20.04708690979098  0.94283277807781  0.03927384368437
 6  20.31317111841184  0.26875230553055 -1.30645643684368
 6  21.10767793669367  1.97381879987999  0.26378128222822
 1 -3.58170880918092  3.84909616061606  1.38241764346435
 1 -9.86510049254925  3.82341142624262 -0.34067770167017
 1 -10.06645913751375 -2.31110150945094 -0.64369719561956
 1 -2.03256577337734 -0.99484710251025  1.48710875917592
 1 -1.72204154275428  1.60793126932693  0.48500495389539
 1 -1.13126451015102  1.15835414981498  2.60637134823482
 1 -2.39781795569557  2.50684926132613  2.64349046684668
 1 -3.05068740124012  1.05476336163616  3.06369223832383
 1 -1.90878989928993 -1.77944921792179 -0.87235502230223
 1 -1.57749291829183  0.04659318641864 -1.09533932473247
 1  0.14616261456146 -0.14372580588059  0.75995186038604
 1  0.09749602980298 -1.76371270507051  1.01515174727473
 1 -4.31155568596860  6.30295812371237 -0.11924696699670
 1 -5.87109739033903  6.98461113701370  1.12822972907291
 1 -4.58691972017202  6.13915287628763  1.91841961426143
 1 -9.40812382648265  5.99463457265727  0.20500412461246
 1 -12.13815336893689 -1.91193206070607 -0.63393782098210
 1 -13.23031924692469 -0.35792939313931 -0.63613124952495
 1 -13.79240706380638 -0.88002011741174 -2.85359247634763
 1 -12.71937890169017  0.56505392689269 -3.01031320082008
 1 -12.04966179057906 -1.01747506450645 -3.46301290869087
 1 -8.24694387768777 -5.02672922852285 -1.63173540154015
 1 -8.11966718131813 -5.88686869946995 -0.12274192609261
 1 -9.43016029602960 -4.82909487068707  0.15434004350435
 1 -2.94761434283428 -3.38678240314032 -0.17875618241824
 1  3.51076269166917 -3.41109838363836 -1.11652736983698
 1  2.74104839363936 -2.53018893389339 -2.36805704100410
 1  4.04318164586459 -1.31974472287229 -0.12471887028703
 1  4.33874693169317 -1.15038851135114 -3.76468658365837
 1  6.08408198659866 -1.26776545194519 -3.55147637153715
 1  4.77054088148815 -2.69031164546455 -3.33746793059306
 1  5.98908933083308  0.55398073547355 -2.38808142534253
 1  5.81000611001100  0.47284283208321 -0.75271953535354
 1  7.06033721262126 -1.43178137523752  0.18784050565057
 1  7.38959435783578 -1.39796858715872 -1.61551102700270
 1  8.62528465986599  0.75744633943394 -1.82060484578458
 1  8.15437393549355  1.26614180238024 -0.22028632023202
 1  9.81336378347835 -1.08305574927493 -0.98983614121412
 1  8.46315856015602 -1.79231804750475  1.19868822962296
 1  10.19214528392839 -1.51357523872387  1.50316220762076
 1  8.83730694229423 -0.50526174857486  1.76678798389839
 1  11.19318295609561  1.14285704560456 -1.20651782338234
 1  10.83514326092609  1.26313518911891  0.90864474477448
 1  12.30355789798980 -0.54009644914491  1.26283996729673
 1  12.60696285028503 -1.00591881248125 -0.48276127362736
 1  13.14708957895790  1.40562010701070 -0.80245915051505
 1  13.42511455625562  1.89638388968897  0.89578536793679
 1  14.85572699849985 -0.50384790079008 -0.36290448164816
 1  14.96820672057206  0.26843723922392  2.35298807180718
 1  13.68087536103610 -0.80921859375938  1.90734823292329
 1  15.60646767986799 -1.28209179227923  1.79877635533553
 1  16.06355749064906  1.71566155955596 -0.93510348504850
 1  16.05855988858886  1.67509704520452  0.95837416061606
 1  17.80748206330633  0.06443961456146  1.04818500520052
 1  17.37443496769677 -0.16443827462746 -0.44517589498950
 1  18.52615762286229  2.27434398219822 -0.80670365866587
 1  18.52183217931793  2.10871477837784  0.60361703220322
 1  19.85457801900190  0.16341918811881  0.98571192199220
 1  20.74832315031503  1.20548559815982 -2.20949307450745
 1  21.35266955695570 -0.26138794059406 -1.31425555895590
 1  19.56610933793380 -0.35003272167217 -1.46766484118412
 1  21.28869564816481  2.41179075817582  1.22967372097210
 1  22.16659439973998  1.61283786648665  0.14102138713871
 1  21.16556320922092  2.75849333653365 -0.37676247254726
 1  0.51414578947895 -3.30885363476348  2.44655300330033
 1 -0.70586026702670 -5.32463973767377  2.83993463006301
 1 -1.38627264056405 -3.18076655375538  3.90022417561756
 8 -12.01317969226923  3.51651645084508 -0.56007782148215
 1 -13.00954146564657  2.06947818791879 -1.31883248824883

