%nproc=4
%Mem=4GB
# td=(NStates=1) iop(3/107=0140000000,3/108=0140000000) iop(3/107=0140000000,3/108=0140000000) CAM-B3LYP/6-31G(d,p) 

TD

0 1
12 -5.59877138373837  1.31166604090409  0.18923752895290
 6 -5.03957434463446 -2.16524498779878 -0.28471533833383
 6 -3.54271306040604  1.12060234503450  2.78614398769877
 6 -6.15748454415442  4.52923618781878  0.70587079587959
 6 -8.03169893699370  1.14668551925192 -2.38903657715772
 7 -4.33768802210221 -0.24763295509551  1.06018735753575
 6 -4.24503803130313 -1.64947864946495  0.74399674927493
 6 -3.27586071057106 -2.36662996579658  1.56056041974197
 6 -2.95765893689369 -1.36807969886989  2.66043259935994
 6 -3.64206163356336 -0.10373300100010  2.16190077527753
 6 -3.55367840724072 -1.81008444984498  3.99820251965197
 6 -2.01737693089309 -2.86932434173417  0.70501580708071
 6 -0.99463110661066 -3.64904248484849  1.61361494949495
 6  0.23864896539654 -3.86549038973897  0.65299349404940
 8  0.33673373767377 -3.52528984258426 -0.45770200440044
 8  1.10369721542154 -4.65033465076508  1.24204881218122
 7 -4.87064788108811  2.66017539443944  1.51417164886489
 6 -4.00733282308231  2.40902832453245  2.41626222952295
 6 -3.67301680538054  3.60471897409741  3.19043960016002
 6 -4.55927648034803  4.60284181248125  2.59151842314231
 6 -5.31763786798680  3.94069216441644  1.50073616591659
 6 -2.55903126622662  3.80239761556156  4.27160134953495
 6 -4.62023855445545  6.03116053655365  2.95945545034503
 8 -3.97585763376338  6.44617250525052  3.90725462536254
 7 -6.92476627652765  2.54680457625763 -0.80350200650065
 6 -7.01506422122212  3.90431004820482 -0.39513120182018
 6 -7.97397258365837  4.52930965576558 -1.18374248374837
 6 -8.42920237353735  3.60099702960296 -2.08426737113711
 6 -7.71616050655066  2.30809681848185 -1.87132307880788
 6 -8.22927591849185  5.99566947634764 -1.28882839163916
 6 -9.23925828912891  3.85523592179218 -3.31470610341034
 6 -8.43952540624062  4.23302144834483 -4.61056746074607
 7 -6.48561698069807 -0.13922894059406 -1.09824491649165
 6 -7.43451298089809 -0.05742181078108 -2.05906011671167
 6 -7.57824533173317 -1.30239194279428 -2.60546306890689
 6 -6.68742829162916 -2.18760833263326 -2.08267443314331
 6 -6.06685510091009 -1.39900346544654 -1.08708483888389
 6 -8.63621907970797 -1.53317344334433 -3.69775667186719
 6 -6.35164883198320 -3.62281786568657 -1.99240279537954
 8 -6.73184758025803 -4.60857855625563 -2.59521578667867
 6 -5.18595715781578 -3.54922297489749 -0.88248056785679
 6 -5.44113159055906 -4.75974141524152  0.14523819561956
 8 -5.88915468706871 -4.47391639973997  1.26135249864986
 8 -5.22551224942494 -5.94684588098810 -0.46616976157616
 6 -5.39426699089909 -6.99345119841984  0.59304113391339
 6  2.36305727892789 -5.05969708990899  0.55750970537054
 6  3.50762529752975 -4.14232439333933  0.89827772757276
 6  4.08812820302030 -3.18903177327733  0.11306494149415
 6  3.63293763266327 -3.13003794509451 -1.36671617611761
 6  5.18690511631163 -2.32101714931493  0.66371016981698
 6  6.54469934123412 -2.56954988018802 -0.06115464806481
 6  7.70673599719972 -1.67664702020202  0.51340703120312
 6  9.05426624792479 -1.87226205980598 -0.13412119461946
 6  9.49360574227423 -3.28987962836284  0.33467000930093
 6  9.98341892099210 -0.64293453085309  0.32679519501950
 6  11.33015031743174 -0.70810041694169 -0.35518428462846
 6  12.26441413001300  0.32309693719372  0.06690353795380
 6  13.65644810061006  0.46023089298930 -0.72324708790879
 6  14.47809610861086 -0.83174257685769 -0.48517266816682
 6  14.31150709030903  1.76819299089909 -0.23234248904890
 6  15.56067025742574  2.22401042924292 -1.05499049404941
 6  16.22301488588859  3.54397915071507 -0.52100271347135
 6  17.52323757285729  3.90485832743274 -1.27165110031003
 6  17.29874246394639  3.98368326002600 -2.75254747894789
 6  17.99539894599460  5.26680194549455 -0.63280273917392
 1 -2.75519124192419  1.05352962836284  3.59469993839384
 1 -6.43485146394640  5.65352073247325  0.74743373507351
 1 -8.80226063326333  1.21354165706571 -3.12281776057606
 1 -3.84240530533053 -3.20961627702770  2.05178323912391
 1 -1.80589771367137 -1.14788244984498  2.72839411551155
 1 -2.94382416151615 -2.68494165536554  4.34761830583058
 1 -3.48366915961596 -1.08063796819682  4.78704073387339
 1 -4.66676918861886 -2.02302138303830  3.77389133963396
 1 -2.26598191189119 -3.51135065236524 -0.25286591039104
 1 -1.42889072147215 -1.97420653695370  0.26397451905191
 1 -0.76626205970597 -2.89996129172917  2.46819103780378
 1 -1.34849957155716 -4.74212134333433  1.86409820782078
 1 -1.49671978577858  3.63595311971197  3.81203711341134
 1 -2.56971796189619  4.77777498349835  4.48948520622062
 1 -2.79831282628263  3.15217621512151  5.08893389938994
 1 -5.20994405830583  6.81310550495050  2.26003132453245
 1 -9.92399153265327  2.99416007310731 -3.56350960266027
 1 -9.99579037693769  4.69958380248025 -3.01453174387439
 1 -9.18201800160016  4.31613002700270 -5.35288049034903
 1 -8.09606911631163  5.29118886428643 -4.29719967496750
 1 -7.70169001800180  3.56201556035604 -4.79465939073907
 1 -8.20126771637164 -0.88986952985299 -4.56910790909091
 1 -8.62115309830983 -2.60629403450345 -3.94515715271527
 1 -9.61721180068007 -1.15390221362136 -3.44299120582058
 1 -4.40181753915392 -3.81974680128013 -1.30084337123712
 1  2.58221935493549 -6.02506044904490  1.01547750465046
 1  2.23967471087109 -5.25042201830183 -0.49178262786279
 1  3.83952607490749 -4.23550283208321  1.90836584418442
 1  2.58495348204820 -3.27322294339434 -1.43945648664866
 1  4.20022463576358 -2.17217077637764 -1.79748221872187
 1  4.34906708070807 -3.74743847304730 -1.89133805970597
 1  4.85451549244924 -1.29264568856886  0.42494437793779
 1  5.21209973727373 -2.43861549394939  1.73297817811781
 1  6.72901042774277 -3.69606279837984  0.09532741674167
 1  6.43396355675568 -2.51425903490349 -1.23722431793179
 1  7.54011294259426 -0.58971229632963  0.33186043154315
 1  7.69689179207921 -1.86085266836684  1.53702808810881
 1  8.77876198549855 -1.93368164336434 -1.17460079817982
 1  8.69630414911491 -3.77541631303130 -0.11535532793279
 1  10.69803914471447 -3.39588379047905  0.03918380488049
 1  9.40049911131113 -3.31392248374837  1.37757820052005
 1  9.39541869246925  0.27286301250125  0.00000536433643
 1  9.96148624612461 -0.82574910881088  1.46859639963996
 1  12.01742688398840 -1.67883791569157 -0.14814918811881
 1  10.98191427812781 -0.58891179607961 -1.32545387898790
 1  11.86108714221422  1.34007843704370  0.10453089788979
 1  12.53491831513151  0.03552474387439  1.14604288448845
 1  13.55560236093609  0.59782421472147 -1.74027626632663
 1  14.64981431973197 -0.88558677137714  0.58006368636864
 1  13.97378294929493 -1.66531554785479 -0.79016533803380
 1  15.47500848924892 -0.62520571877188 -0.84611150365037
 1  13.47883607780778  2.71525614471447 -0.28703049074907
 1  14.64681138143814  1.57714800400040  0.81724893879388
 1  16.30741239703971  1.31242985568557 -0.83978046874687
 1  15.23545912931293  1.94432834563456 -2.07326870657066
 1  15.29705110971097  4.33086846484649 -0.77894989308931
 1  16.13118588868887  3.22261890329033  0.65753565396540
 1  18.13286696809681  3.00616210741074 -1.03353243284328
 1  16.65009572997300  4.77405393429343 -2.98846120592059
 1  18.30201612511251  4.16001551485149 -3.22766737183718
 1  17.07660786098610  3.13723479347935 -3.19823785838584
 1  18.16869291649165  4.85587680518052  0.42888455265527
 1  18.80934845714571  5.55040919311931 -1.22717963236324
 1  17.26135768666867  5.94105360846085 -0.74984904620462
 1 -5.48464376577658 -8.08067750085008  0.11423788608861
 1 -6.35461989228923 -7.03855094169417  1.06258976647665
 1 -4.58908707730773 -6.93419499509951  1.40733519011901
 8 -7.78845643724372  6.77495399619962 -0.49621740574057
 1 -8.89443774087409  6.47362300720072 -2.09632531533153

