%nproc=4
%Mem=2GB
# td=(NStates=1) iop(3/107=0140000000,3/108=0140000000) iop(3/107=0140000000,3/108=0140000000) CAM-B3LYP/6-31G(d,p) 

TD

0 1
12 -6.71041361346135  0.69654879897990  0.22988060756076
 6 -4.67032413891389 -2.25471389318932  0.40557083408341
 6 -4.26751856725673  2.63869550265027  1.22886576817682
 6 -8.69404210891089  3.43702772687269 -0.38453795549555
 6 -9.22882097969797 -1.49285231483148 -0.84190424912491
 7 -4.73066813871387  0.31659105680568  0.61429046114611
 6 -4.03509077467747 -0.94397410421042  0.73617417281728
 6 -2.61381480008001 -0.72369412861286  1.09446150845084
 6 -2.41198116391639  0.80152030083008  1.40258242074207
 6 -3.80163642654265  1.32832291749175  0.98435321002100
 6 -2.23783006870687  1.13108490439044  2.85169973277328
 6 -1.59791854025403 -1.18689125252525  0.01770309660966
 6 -0.22662078037804 -1.43665537213721  0.48066714021402
 6  0.87184826402640 -1.68861609850985 -0.57556573037304
 8  0.98502857095710 -1.23907652015202 -1.60599158935894
 8  1.83205349194920 -2.33682398099810  0.20223530103010
 7 -6.53059480168017  2.66337670767077  0.34621836973697
 6 -5.53791435233523  3.36397504070407  0.76020231643164
 6 -5.52569678487849  4.77602728752875  0.84536940554055
 6 -6.82131284468447  5.05777186768677  0.42289887318732
 6 -7.47147885178518  3.79584839323932  0.05110994239424
 6 -4.59058397869787  5.69140657115712  1.09320698869887
 6 -7.60399196049605  6.17741466156616  0.05415493919392
 8 -7.15567948414841  7.24066568316832  0.37009486628663
 7 -8.61513506700670  0.88034889408941 -0.44498714781478
 6 -9.41636530893089  2.04689942524252 -0.61456250855086
 6 -10.72655928622862  1.74556442754275 -1.02901868306831
 6 -10.75491984948495  0.45763666806681 -1.11386224172417
 6 -9.56077774107411 -0.30208837203720 -0.80836291299130
 6 -11.71293806910691  2.78503469656966 -1.29267391819182
 6 -11.88220134063406 -0.19734329662966 -1.52675080878088
 6 -12.15085194729473 -0.27417958315832 -3.07266006070607
 7 -6.95878236113611 -1.44719728102810 -0.12827547204720
 6 -8.04072673427343 -2.22444244094409 -0.60842404040404
 6 -7.62087967306731 -3.69404672707271 -0.43523453355336
 6 -6.34346996819682 -3.67794695559556 -0.06517477807781
 6 -5.94069035773577 -2.21789060356036 -0.00333414911491
 6 -8.53350187368737 -4.69374675247525 -0.85738855475548
 6 -5.23395960046005 -4.53659945804580  0.16423444914491
 8 -5.14423617231723 -5.74401493979398  0.11544205080508
 6 -4.07837156255626 -3.64022458165817  0.36910155735574
 6 -3.52239575047505 -3.96309248474847  1.84509422242224
 8 -3.89982522262226 -4.31312804760476  2.85089375917592
 8 -2.18337001190119 -3.99237554285429  1.60346028522852
 6 -1.25629415151515 -4.27148223832383  2.78307273247325
 6  2.96519841264126 -2.63232840974097 -0.76830807490749
 6  3.91663543094309 -1.45781278237824 -0.67077260956096
 6  5.05930668606861 -1.31907877927793 -1.55295149674967
 6  5.22230621442144 -2.11355449014901 -2.83495047724772
 6  6.01685551015102 -0.16669432233223 -1.10489704820482
 6  7.35911460546055 -0.78271405350535 -0.66310304760476
 6  8.45704826512651  0.23240887548755 -0.12366084658466
 6  9.61422451185119 -0.32168908920892  0.29025071937194
 6  9.49394691099110 -0.92043085778578  1.62449681848185
 6  10.84961729172917  0.71036589078908  0.33220805920592
 6  12.31439671017102 -0.03857255005501  0.29381769296930
 6  13.15185672827283  0.97738501320132  0.35493839223922
 6  14.73634997019702  0.54002728082808  0.24168883098310
 6  14.93943893199320 -0.14415669616962  1.33583350735073
 6  15.79715934433443  1.47067196919692 -0.08766556125613
 6  17.18059753785379  1.16479170357036 -0.36929380328033
 6  18.23379292669267  2.15573276447645 -0.34211435823582
 6  19.63298549964997  1.50632912771277 -0.75708579227923
 6  19.40839064036404  0.91478690899090 -2.14738052925293
 6  20.76093326222622  2.48352977097710 -0.57781287718772
 1 -3.29818045634563  3.32822407340734  1.66989639133913
 1 -9.78452243474348  4.28973805890589 -0.41105473937394
 1 -10.07326981858186 -2.12455285458546 -0.96568939483948
 1 -1.95944846164616 -1.26169378717872  1.96413646194619
 1 -1.68071741034103  1.36872734893489  0.66836328972897
 1 -1.04626601030103  0.80036835123512  3.10274098519852
 1 -2.27809598349835  2.22267084348435  2.98939505730573
 1 -2.85296762926293  0.52413029832983  3.42196806590659
 1 -2.33160218051805 -2.19111038403840 -0.43667145394539
 1 -1.47676284528453 -0.41193266616662 -1.08254804560456
 1 -0.03179518121812 -0.72290372367237  1.47287315251525
 1 -0.13331705150515 -2.40880721452145  0.95537576967697
 1 -3.76806133653365  5.64149197709771  0.45513047074707
 1 -5.13944422502250  6.69291196709671  1.13882078817882
 1 -3.90944197239724  5.72557151815181  2.12754052635264
 1 -8.84637765186519  5.73473858305830 -0.29720609640964
 1 -11.88351790539054 -1.12744361186119 -1.26686111331133
 1 -12.96261247624762 -0.06245984618462 -1.23534117051705
 1 -13.00804862796280 -1.01751386678668 -3.39714683178318
 1 -12.28628559235924  0.59817723922392 -3.70475264476448
 1 -11.12871969636964 -1.04139745674567 -3.40499710711071
 1 -8.92487167046705 -4.48672522812281 -1.62076430443044
 1 -7.92674788938894 -5.52501251385139 -1.13808346024602
 1 -9.19651693169317 -4.88982094329433 -0.39781517201720
 1 -3.17814739613961 -3.97879160406040 -0.35753406020602
 1  3.42258387378738 -3.55043231703170 -0.01464718181818
 1  2.44267855665567 -2.55145106010601 -1.66881711701170
 1  3.91259858755876 -1.21850459885989  0.38521212281228
 1  4.58226128312831 -1.90995446794679 -3.73343345834583
 1  6.48874245264526 -1.91270994639464 -3.58966018991899
 1  5.38622244964496 -3.37469008330833 -2.31089527332733
 1  6.49379980188019  0.37865320272027 -1.84700731793179
 1  5.47636274567457  0.57319286708671 -0.30371463486349
 1  7.48253943284328 -1.44120231733173  0.34048577017702
 1  7.88326372477248 -1.42389117941794 -1.65673514941494
 1  8.55801793319332  1.05057565236524 -0.96472925822582
 1  7.74261275937594  0.77219240744074  0.76580228862886
 1  10.00947339443944 -1.19650709440944 -0.41092825042504
 1  8.61292353665367 -1.44074288998900  1.57428578937894
 1  10.35397146654666 -1.57747162836284  1.59165105650565
 1  9.57568077967797 -0.43553477587759  2.27849915501550
 1  10.88476211401140  1.45232799269927 -0.31878905050505
 1  10.82367211381138  1.08239711531153  1.33222710301030
 1  12.13047058925893 -0.55488792829283  1.25480916421642
 1  12.22034418841884 -0.52684090469047 -0.60195319281928
 1  13.04020889088909  1.63933347834783 -0.45946485108511
 1  13.26853889868987  1.79144339563956  1.33030882028203
 1  14.66866829262926  0.17686017001700 -0.43264145534553
 1  14.77329722962296  0.37702809830983  2.11638441144114
 1  14.52211948544854 -0.86632430433043  1.52232973107311
 1  15.74871190429043  0.04139055595560  1.57763424112411
 1  15.66410754565456  1.96759675307531 -0.95730570527053
 1  15.85998003060306  2.25234476997700  0.80926925012501
 1  17.69191050615062  0.25676884748475  0.18190837753775
 1  17.09213673787379  0.61959012821282 -1.14294567196720
 1  17.87700270737074  3.13021956975698 -1.01983497179718
 1  18.43365336143615  2.39350325722572  0.62085875637564
 1  19.72906546774677  0.45616846304630 -0.16234288348835
 1  19.21317963596359  1.59215426502650 -2.90783290849085
 1  20.21926621662166  0.68039623782378 -2.60285441884188
 1  18.33169589658966  0.35989827142714 -2.35625370007001
 1  20.73046982558256  2.77379695879588  0.38431918551855
 1  21.64243198349835  2.10620720342034 -0.87407012201220
 1  20.70931758465846  3.55351283848385 -1.03013781008101
 1 -0.56111173627363 -4.73302605200520  2.45706405440544
 1 -1.68827850885089 -4.68617589128913  3.59977061366137
 1 -0.90338435173517 -3.20205868296830  2.98277243044304
 8 -11.56732510681068  3.92204700390039 -1.21423323702370
 1 -12.93987449894990  2.22868410851085 -1.24264486948695

