%nproc=4
%Mem=4GB
# td=(NStates=1) iop(3/107=0140000000,3/108=0140000000) iop(3/107=0140000000,3/108=0140000000) CAM-B3LYP/6-31G(d,p) 

TD

0 1
12 -5.58090959755976  1.16257113141314  0.09820842604260
 6 -5.11426181338134 -2.15026348964897 -0.32905977277728
 6 -3.38836762586259  1.17746803160316  2.67227260056006
 6 -6.16907570327033  4.55626889108911  0.62964317311731
 6 -8.02870863796380  1.22781363206321 -2.41100877437744
 7 -4.42121637493749 -0.22370056185619  1.02329366816682
 6 -4.31627515501550 -1.53344704630463  0.61148349794979
 6 -3.27211033553355 -2.39823312611261  1.36781114481448
 6 -2.96963013401340 -1.38600149104910  2.54155071117112
 6 -3.58114554195420 -0.01456408410841  2.05247983318332
 6 -3.51326436583658 -1.85322876427643  3.92914561396140
 6 -2.00682587578758 -2.75919332863286  0.56328163366337
 6 -0.97981962546255 -3.51643922452245  1.39879346734673
 6  0.29754485498550 -3.89757359805981  0.64864305900590
 8  0.46395645994599 -3.57601491509151 -0.53318955315532
 8  1.18103494919492 -4.67585720302030  1.34333894119412
 7 -4.87981879817982  2.61918129502950  1.45154538623862
 6 -3.93508559835984  2.36221364306431  2.44649525282528
 6 -3.68947845154515  3.62611111331133  3.09673022922292
 6 -4.50718127082708  4.55027655595560  2.58298757005701
 6 -5.30391649584958  3.94282237743774  1.60252634493449
 6 -2.70148551165117  3.83977135293529  4.23044723412341
 6 -4.59311584218422  6.03889130963096  2.81376088088809
 8 -4.04470451845185  6.61724961296130  3.78573247314731
 7 -6.95048884878488  2.64923481928193 -0.76510816711671
 6 -6.97664037883788  3.94547416461646 -0.34965665436544
 6 -7.97247243364336  4.66905363016302 -1.23680779027903
 6 -8.44626407970797  3.61420835073507 -2.02067101150115
 6 -7.83377226772677  2.46990299909991 -1.76850279677968
 6 -8.34281727262726  6.05086499589959 -1.05022453125313
 6 -9.56277064036404  3.78380877907791 -3.08116274907491
 6 -8.92488394209421  4.09506765296530 -4.46261266526653
 7 -6.45684410341034 -0.16394141184118 -1.06994208620862
 6 -7.41067059665967 -0.04979104770477 -2.09277348804880
 6 -7.70408791599160 -1.32713441704170 -2.65067759035904
 6 -6.77545709450945 -2.21502107390739 -1.99750591629163
 6 -6.09873828922892 -1.41102466756676 -1.09487561796180
 6 -8.75059051685168 -1.64543466946695 -3.73682057825783
 6 -6.25488915601560 -3.56973255715572 -1.93443699879988
 8 -6.66371076657666 -4.57596529492949 -2.55356162126213
 6 -5.13142170427043 -3.53266131873187 -0.94988730853085
 6 -5.33743122052205 -4.64059950105011  0.13037670947095
 8 -5.69587535913591 -4.46579558765877  1.28810517391739
 8 -5.07079677787779 -5.80674187058706 -0.38374151875188
 6 -5.39169673387339 -6.94457631093109  0.47264909470947
 6  2.31156212941294 -5.05502662286229  0.66923087748775
 6  3.53149768476848 -4.09603976487649  0.97758565836584
 6  3.98692808300830 -3.18333120322032  0.04462809780978
 6  3.64686902580258 -3.02445738703870 -1.23647315181518
 6  5.22718914471447 -2.34359940754075  0.62512631143114
 6  6.54717958925893 -2.61700462566257 -0.03099163176318
 6  7.67020234383438 -1.80903025852585  0.56362205270527
 6  9.12666348764876 -1.98694352795280 -0.12406018851885
 6  9.59642602430243 -3.41012165256526  0.15720226252625
 6  10.02359293839384 -0.90316055345535  0.55423793929393
 6  11.51114841724172 -0.90871047794779 -0.10505927212721
 6  12.33801148974897  0.23057768526853  0.27815466306631
 6  13.64792724852485  0.40127499739974 -0.54548931213121
 6  14.61729002800280 -0.66806620922092 -0.37368151905191
 6  14.21172711231123  1.82236840844084 -0.15241449624962
 6  15.61959615001500  2.06979500770077 -0.83517851285129
 6  16.15722830723072  3.55596034883488 -0.49707032023202
 6  17.47638288738874  3.88237607920792 -1.36750068526853
 6  17.17963055275527  3.97299219091909 -2.95781800600060
 6  18.01042044814481  5.28149341464146 -0.87928738763876
 1 -2.58317404020402  1.21132540794079  3.47326779517952
 1 -6.20732871167117  5.62605798619862  0.89633862556256
 1 -8.67933834103410  1.09758006090609 -3.18520399919992
 1 -3.62059312411241 -3.35210052545254  1.81713977477748
 1 -1.87528465236524 -1.16271393299330  2.70074135023502
 1 -3.11574135323532 -2.82233539473947  4.31657520152015
 1 -3.40324111681168 -1.01011091549155  4.64647667746775
 1 -4.52739525122512 -2.31420050095009  3.74072802330233
 1 -2.01881719541954 -3.32723224052405 -0.33052367616762
 1 -1.43455128752875 -1.91001011731173  0.26859498109811
 1 -0.76830226372637 -2.87144844044405  2.14647886658666
 1 -1.37256197779778 -4.37413454465447  1.83125492349235
 1 -1.77779789358936  3.59696922132213  3.84510041974197
 1 -2.80040103020302  4.79689689568957  4.68921517921792
 1 -2.85286828182818  3.02375337283728  4.94818982498250
 1 -5.34085714961496  6.60653484788479  2.12821814321432
 1 -10.33974310781078  3.09786044314431 -3.23143639533953
 1 -10.25935673357336  4.62865670977098 -2.77459775047505
 1 -9.81516131593159  4.20843925792579 -5.16908211051105
 1 -8.28505801520152  5.04494423982398 -4.41011096609661
 1 -8.35570541954195  3.25146450525052 -5.06558648344835
 1 -8.46499408900890 -1.22412295519552 -4.76525752405241
 1 -8.53500448344835 -2.67908131323132 -3.99553219021902
 1 -9.81917199669967 -1.52514933833383 -3.38855576227623
 1 -4.21687904530453 -3.92998782538254 -1.62861614851485
 1  2.54851598459846 -6.04921286428643  1.00388634553455
 1  2.38985972937294 -5.22501947804781 -0.47278072767277
 1  3.80243236553655 -3.99163844564456  2.10502551015102
 1  2.67839282598260 -3.29556517761776 -1.51397393839384
 1  3.61991660496050 -1.89939349864986 -1.41038350885088
 1  4.40882305630563 -3.54141787098710 -1.81037996389639
 1  4.88243828472847 -1.39956638063806  0.51155303880388
 1  5.35218374567457 -2.53189482188219  1.65971085138514
 1  6.73481100780078 -3.78932212431243  0.06569445344534
 1  6.52550271067107 -2.61141875087509 -1.06603719921992
 1  7.41318024932493 -0.69257258235824  0.37498474397440
 1  7.67932003490349 -1.86393297639764  1.53033741904190
 1  9.17901201050105 -1.99278755395540 -1.26256959505951
 1  8.96135065376538 -4.06285505690569 -0.23301709410941
 1  10.54605394619462 -3.56169037113711 -0.17551766526653
 1  9.64811387278728 -3.76197728922892  1.31192163486349
 1  9.35298444904491  0.14467019321932  0.37225258905891
 1  10.21408150565057 -1.09352588648865  1.66731627162716
 1  11.95045018631863 -2.04092412431243 -0.01150552375238
 1  11.41233732043204 -0.78605151005101 -1.14445577917792
 1  11.67743877737774  1.16386081528153  0.07131757655766
 1  12.54012883618362  0.25494668606861  1.33636191639164
 1  13.46639344004400  0.71393582588259 -1.56111835053505
 1  15.06866620492049 -0.92031024372437  0.61017669766977
 1  14.09799537053705 -1.68977799409941 -0.62929925142514
 1  15.53017400580058 -0.59403260146015 -0.92403929642964
 1  13.51492968716872  2.77513213231323 -0.47153894159416
 1  14.21459816011601  2.04401469066907  0.93389060296030
 1  16.51704336013601  1.31887049974997 -0.65317180788079
 1  15.52816840024003  2.11713562636264 -1.85619699939994
 1  15.55203660826083  4.29194457245725 -0.83625562366237
 1  16.63799656975698  3.43289993139314  0.51521142154215
 1  18.10286396779678  3.13335482668267 -0.86571565116512
 1  16.42673339373937  4.83452998189819 -3.01993435323532
 1  18.07060298379838  4.56274578787879 -3.38619322442244
 1  16.99598979917992  3.00994206420642 -3.25400343494349
 1  18.37171321852185  5.14393561106111  0.21674333853385
 1  18.94656217851785  5.35963011521152 -1.42982989738974
 1  17.33313486438644  6.02014151725173 -1.04900896219622
 1 -5.21603690509051 -7.91180061316132 -0.08872240994099
 1 -6.40683511381138 -7.02571965856586  0.76620012751275
 1 -4.72898106670667 -7.10612218781878  1.24854931153115
 8 -7.86843443504350  6.87267376817682 -0.35085286928693
 1 -9.22405070217022  6.41178682358236 -1.71925760856086

