%nproc=4
%Mem=2GB
# td=(NStates=1) iop(3/107=0140000000,3/108=0140000000) iop(3/107=0140000000,3/108=0140000000) CAM-B3LYP/6-31G(d,p) 

TD

0 1
12 -6.70197276937694  0.58351749584959  0.07212483198320
 6 -4.56522362886289 -2.05715413721372  0.54007428442844
 6 -4.17898971437144  2.63014464756476  1.22067494909491
 6 -8.80614331903190  3.15225925002500 -0.11873137483748
 6 -9.35047314491449 -1.66790982058206 -0.83821388008801
 7 -4.67522259415942  0.30767016471647  0.65080411251125
 6 -3.90652791839184 -0.88065777257726  0.64930548594859
 6 -2.42695611421142 -0.75781754095410  0.96598866116612
 6 -2.46052601840184  0.82493264206421  1.25262742524252
 6 -3.82597886078608  1.22937302250225  1.05394016871687
 6 -1.97800408610861  1.23477527342734  2.60052461526153
 6 -1.56387513591359 -1.07582014541454 -0.21997067076708
 6 -0.10884900320032 -1.34785649224923  0.39628870237024
 6  0.82231331053105 -1.41439867676768 -0.78736691049105
 8  0.72806287438744 -1.07774038653865 -2.00967195739574
 8  1.97123741034103 -2.00288058665867 -0.32901782428243
 7 -6.55366710891089  2.47685805580558  0.27137088498850
 6 -5.45184574547455  3.02877152035204  0.71723802000200
 6 -5.69853406860686  4.56693637843784  0.60480534913491
 6 -6.92307302070207  4.76921301180118  0.37805438873887
 6 -7.48251995589559  3.28129693809381  0.14067889928993
 6 -4.66139105940594  5.48703613411341  0.96328399639964
 6 -7.59744130543054  6.07020394049405  0.02503202690269
 8 -7.18405232143214  7.16249786638664  0.18690654745475
 7 -8.77567112061206  0.63833469266927 -0.31344399349935
 6 -9.43072674507451  1.88058279357936 -0.32753380568057
 6 -10.75057168746875  1.73610348144814 -0.63391917311731
 6 -10.94547890539054  0.44013491789179 -0.94762561806181
 6 -9.75294695799580 -0.29899806300630 -0.77356943364336
 6 -11.74408118341834  2.66867306040604 -0.68868351915192
 6 -12.16256937743774 -0.38841240354035 -1.24263239693969
 6 -12.49750661276128 -0.63194535973597 -2.86511930663066
 7 -6.79051553445345 -1.33402596389639 -0.24310695519552
 6 -7.96549921152115 -2.02841283798380 -0.55612881088109
 6 -7.63955154025403 -3.44783210561056 -0.58701971207121
 6 -6.24272989418942 -3.53501266216622 -0.24787304790479
 6 -5.81475776447645 -2.26017483198320 -0.04901871757176
 6 -8.63846236973697 -4.72295967376738 -0.73374619051905
 6 -5.21413761826183 -4.39853565166517  0.10476850255026
 8 -5.22165391409141 -5.60621115941594  0.09607011361136
 6 -4.05909963536354 -3.54638519771977  0.54695934313431
 6 -3.72633614451445 -3.73491966746675  1.89080879387939
 8 -4.33425866596660 -4.08151488628863  2.88663733353335
 8 -2.22436411131113 -3.74702100740074  1.95900583978398
 6 -1.48651717381738 -4.09660475057506  3.38706313151315
 6  3.04515640844084 -2.18475365226523 -1.43739498359836
 6  4.14269803720372 -1.14994199529953 -1.21157668996900
 6  5.18362911831183 -0.99622649404940 -1.92913911551155
 6  5.53011699549955 -1.85659879457946 -3.27921490369037
 6  6.35676950155016 -0.06812446534653 -1.68099465796580
 6  7.39328802280228 -0.85031081318132 -0.91695843314331
 6  8.41557411771177  0.24222985758576 -0.53476195669567
 6  9.82051514091409 -0.41727864816482  0.17771946624662
 6  9.80698821512151 -0.85806462116212  1.74633900270027
 6  10.88374070407041  0.57076193039304  0.28724356275628
 6  12.18936420692069 -0.00791948474847  0.65480379157916
 6  13.22148369096910  1.17019429412941  0.25425832423242
 6  14.59536587178718  0.54660793889389  0.60077473957396
 6  14.81072606070607  0.29727744724472  2.37761768576858
 6  15.70841046944695  1.59459436143614 -0.00209700440044
 6  17.11058053615362  1.05710093449345 -0.23413028692869
 6  18.17870741814182  2.00664785598560 -0.54841498829883
 6  19.55036723782378  1.23519201400140 -0.36842692639264
 6  19.90046984828483  0.08582401270127 -1.68709450065007
 6  20.67787495639564  2.28577999599960 -0.54441953785379
 1 -3.27665830413041  3.26060731173117  1.70764016571657
 1 -9.42090607310731  3.84768385348535 -0.35951958585859
 1 -9.94593708530853 -2.48050845014501 -1.08274110001000
 1 -2.43420593739374 -1.38701631943194  1.67239728802880
 1 -1.84408374697470  1.23350382658266  0.25153160656066
 1 -1.20231161486149  0.55361367576758  3.07604831593159
 1 -1.96726490039004  2.28613719011901  2.77281339913991
 1 -2.68134046654666  0.99006689198920  3.49998586768677
 1 -2.04225324562456 -2.17460873387339 -0.44304209100910
 1 -1.64052922192219 -0.13338481138114 -0.88165795659566
 1  0.11032903120312 -0.60736216951695  1.09860572577258
 1  0.15137141734173 -2.11621795559556  0.95144537663766
 1 -3.76379090949095  5.59673750165016 -0.17294233653365
 1 -5.26145642624263  6.50211288718872  1.07756466256626
 1 -3.96842787098710  5.21921088208821  1.64861263356336
 1 -8.53821683578358  5.98635374457446 -0.45642201800180
 1 -12.22178173177318 -1.36481734923492 -0.83920834803480
 1 -12.86602281728173  0.20530693049305 -0.83393102950295
 1 -13.60705852895290 -0.76912902830283 -3.46502361946195
 1 -12.11592855665567  0.48285570707071 -3.10099226872687
 1 -11.79535636003600 -1.56475979297930 -3.23158976637664
 1 -8.96619580288029 -4.82375893149315 -1.77321954995499
 1 -7.96472168676868 -5.74411442404240 -0.74847449934993
 1 -9.90100738073807 -4.65748770997100 -0.16110150065007
 1 -3.02948252965297 -3.47923164806481 -0.17497580438044
 1  3.51848346374638 -3.27886516031603 -1.00545626272627
 1  2.84694898369837 -2.25486140114011 -2.36809704500450
 1  3.83400072777278 -0.87142989138914 -0.16823322172217
 1  4.76392944994500 -1.32386585908591 -4.07404751975198
 1  6.77480105850585 -2.09033770917092 -3.79784100800080
 1  5.13863769116912 -2.97664027832783 -3.11375555935594
 1  7.00178059996000  0.38923426082608 -2.74498711591159
 1  5.89524463386339  0.75086063386339 -1.39904416781678
 1  6.99337051595159 -1.20723892099210 -0.00788906730673
 1  7.83851925032503 -1.78534732503250 -1.44385386128613
 1  8.83619575097510  0.90032062686269 -1.45488827412741
 1  8.12772127022702  0.78483367156716  0.08594430283028
 1  10.22272471957196 -1.32835027872787 -0.09158631623162
 1  9.17308955325533 -1.96250506620662  1.63899226002600
 1  10.65799186858686 -1.00923480468047  2.36345823722372
 1  9.15988920052005  0.12069084668467  2.18546985208521
 1  10.83271690949095  0.99491225112511 -0.70674784638464
 1  10.54141388798880  1.38750762636264  1.09811369166917
 1  12.31336887908791 -0.16695913541354  1.92605628892889
 1  12.50364251825182 -1.03670189078908 -0.15950894839484
 1  13.56508137813781  1.41246079107911 -0.75574447904790
 1  12.90501254605461  2.37327157845785  0.50633642304230
 1  14.87079850565057 -0.97814533053305 -0.14010220142014
 1  14.63146304620462  1.54832522802280  2.99680245324532
 1  14.28612588608861 -0.59476714861486  3.04897239533953
 1  15.82392942604260 -0.07621120422042  2.80220669836984
 1  15.60220135503550  1.96764675807581 -0.66678665336534
 1  15.64441847444744  2.44925446094609  0.83289161236124
 1  17.17478879397940  0.40678384898490  0.63453364006401
 1  17.12241976617662  0.45689385858586 -1.00919229662966
 1  18.01029603670367  2.59478602640264 -1.61061404970497
 1  18.03571356745675  2.97186109300930 -0.10970429992999
 1  19.84869743094309  0.73815666186619  0.40228357915792
 1  19.79126744474447  0.61093614321432 -2.62377450265027
 1  20.82709699969997 -0.27319912171217 -1.96111024442444
 1  19.03807653465347 -0.90062778117812 -1.79144721942194
 1  20.61331811041104  2.95803538263826  0.35580633423342
 1  22.04653239353935  1.71211779447945  0.07261454645465
 1  20.77257391029103  3.24263175037504 -1.43279807610761
 1 -0.24373999909991 -3.94474722412241  3.04233258125813
 1 -1.81324100510051 -4.93017029072907  3.27703834043404
 1 -1.40238425172517 -3.36870534763476  3.99415356855686
 8 -11.56625499979998  3.98844364356436 -0.69850166386639
 1 -12.69933044454445  2.31353259335934 -0.92597320232023

