%nproc=4
%Mem=2GB
# td=(NStates=1) iop(3/107=0140000000,3/108=0140000000) iop(3/107=0140000000,3/108=0140000000) CAM-B3LYP/6-31G(d,p) 

TD

0 1
12 -6.79693226532653  0.76622576667667  0.05944356385639
 6 -4.64025113161316 -2.03563198499850  0.52041231823182
 6 -4.22116393179318  2.77304893799380  0.84777765936594
 6 -9.16081878657866  3.16537056115612  0.03955445374537
 6 -9.44870296789679 -1.77614064366437 -0.54070412911291
 7 -4.63023809570957  0.44482388008801  0.60353938603860
 6 -3.94848211381138 -0.87528723552355  0.68680923632363
 6 -2.55052847144714 -0.61332309150915  0.86132819511951
 6 -2.44280424622462  0.95524567336734  1.14177634013401
 6 -3.80342660556056  1.33096318151815  0.88817359205921
 6 -2.10975726142614  1.31521331723172  2.49617418021802
 6 -1.63638238663866 -0.79658222162216 -0.28347702140214
 6 -0.25423354165417 -1.19822152875287  0.05825489898990
 6  0.75545662486249 -1.29469670657066 -0.93454162796280
 8  0.92554262236224 -0.93887650015001 -1.97876886708671
 8  1.86888717531753 -2.24644494309431 -0.53082800530053
 7 -6.73517525972597  2.62998336833683  0.31178492639264
 6 -5.54075463636364  3.23001164436444  0.45946224242424
 6 -5.83134734993499  4.79179886468647  0.60532540114011
 6 -7.28516923032303  4.91451754225423  0.41092767606761
 6 -7.82083378727873  3.60971978037804  0.12392722412241
 6 -4.63481840214021  5.83299072957296  0.85077274527453
 6 -8.03595515681568  6.16933385348535  0.29846937063706
 8 -7.48832274847485  7.34611622822282  0.40073793059306
 7 -8.85922947644764  0.70682154135414 -0.44990763986399
 6 -9.58164183658366  1.87771250655066 -0.44839589188919
 6 -11.07968459875988  1.55333520462046 -0.62959874107411
 6 -11.13258761626163  0.10227113151315 -0.74824568006801
 6 -9.78022968626863 -0.36974513771377 -0.60811288798880
 6 -11.97077385268527  2.55063125622562 -1.03326797759776
 6 -12.28733185368537 -0.67549111141114 -1.04198233193319
 6 -12.56477333943394 -0.64209637483748 -2.58617141184118
 7 -7.09807629052905 -1.43488604990499  0.05310266576658
 6 -8.24636729832983 -2.25006500320032 -0.24709790779078
 6 -7.61960954605461 -3.73709103150315 -0.42787379747975
 6 -6.19249487068707 -3.55584474537454  0.07009874927493
 6 -5.93560984968497 -2.20300911541154  0.10719690399040
 6 -8.60316884038404 -4.84390176797680 -0.61072388828883
 6 -4.99894609910991 -4.38890468856886  0.14635266096610
 8 -4.92081383008301 -5.60607114541454 -0.07259675307531
 6 -3.86016974237424 -3.49820037923792  0.45388003520352
 6 -3.23397690859086 -3.74788096359636  1.87722743574357
 8 -3.81738697879788 -3.98784551935194  2.86599526932693
 8 -1.96530820572057 -3.75792209750975  1.70372031123112
 6 -0.89484800690069 -4.08668375847585  2.80381480668067
 6  2.96563845664566 -2.53799897679768 -1.61405264936494
 6  4.10686445384539 -1.48736573767377 -1.09897542984298
 6  5.15969672507251 -1.20046691809181 -1.94992119371937
 6  5.44416840064006 -1.73696683138314 -3.34372135433543
 6  6.15668949354936 -0.26221387428743 -1.43267982648265
 6  7.45401409540954 -0.67114289638964 -0.74250098739874
 6  8.54519708000800  0.45021065566557 -0.54891337183718
 6  9.79064215361536 -0.38135505580558  0.11649334363436
 6  9.57727524382438 -0.70814962966297  1.60820518931893
 6  10.96271860186019  0.78784363856386  0.02730756915692
 6  12.32212748324832  0.16718802600260  0.55230354155416
 6  13.47481902450245  1.17321459615962  0.38680157855786
 6  14.89691602680268  0.51178445654565  0.77233189528953
 6  15.07446243434343  0.19422714221422  2.42857278127813
 6  15.91405103350335  1.42342724472447  0.31864506980698
 6  17.29321879998000  0.73137836223622  0.08260138623862
 6  18.44973452085209  1.67135432663266 -0.34899504630463
 6  19.85321752285229  0.97020551535154 -0.54004408810881
 6  20.14591439273928  0.04770020032003 -1.85745153635364
 6  21.07596476537654  1.89637105510551 -0.46062115801580
 1 -3.32880351865187  3.48246949794979  1.20532993469347
 1 -10.02855683818382  4.06987607270727  0.04177054315431
 1 -10.42278477007701 -2.53605400470047 -0.52704553045305
 1 -2.11944446124612 -1.22798041584158  1.63619366766677
 1 -1.84417375597560  1.38704918111811  0.36089254265427
 1 -1.22422380608061  1.17182549694969  2.99905061616162
 1 -2.30059823372337  2.41475005140514  2.98823494129413
 1 -2.63580591309131  0.98220610591059  3.26407227632763
 1 -2.16814583488349 -1.55472674567457 -1.00121790859086
 1 -1.64962013101310  0.00546907400740 -0.74523431423142
 1  0.07901589988999 -0.67755918921892  0.67938380358036
 1 -0.40159387918792 -2.11876821062106  0.74557478957896
 1 -3.62002653305331  5.34749257715772  0.41899685738574
 1 -4.74331461206121  6.82741541744174  0.61097800390039
 1 -4.40392142034203  5.85108406940694  1.86957472977298
 1 -9.18981199529953  6.27590269946995  0.05959958415842
 1 -12.35707526112611 -1.76342721022102 -0.39973440064006
 1 -13.08165438043804  0.05679207900790 -0.65165280168017
 1 -13.69875769886989 -0.99894200960096 -2.76829394649465
 1 -12.59801676547655  0.36392381388139 -2.84848701820182
 1 -11.60913773817382 -0.85715903290329 -3.28329493689369
 1 -9.28979816311631 -4.82686924252425 -1.39043127112711
 1 -8.07189240384038 -5.57222723532353 -0.60520017191719
 1 -8.92139941994199 -4.90620258145815  0.18579318881888
 1 -2.99633921532153 -3.71708543344334 -0.22284059085909
 1  3.20574218961896 -3.50906818061806 -1.63527924502450
 1  2.46059034783478 -2.07679359435944 -2.60968120342034
 1  3.80666799449945 -1.08403115151515 -0.17796419481948
 1  4.39392244924492 -1.31308478097810 -3.59764987998800
 1  6.66774035243524 -1.08120679607961 -3.70289151305131
 1  5.50456428382838 -3.24357697199720 -3.28816300010001
 1  6.28555897779778  0.33264860226023 -2.46629924712471
 1  5.73552866226623  0.80051559935994 -0.97319158255826
 1  7.22730390929093 -1.01421961906191  0.45147686928693
 1  8.06429182758276 -1.48468725902590 -1.45593506940694
 1  8.72588471987199  0.93773436823682 -1.92720550585058
 1  8.03265176327633  1.70528571677168 -0.05619991159116
 1  10.28716116321632 -0.98839628332833 -0.61290844844484
 1  8.86935918021802 -1.66920573627363  1.66997535833583
 1  10.50906697609761 -1.00895477667767  2.32887477887789
 1  8.66323953555356  0.23772254985499  2.02007331243124
 1  11.17664130193019  1.13675643554355 -1.53321049264926
 1  10.82916266286628  1.70891976757676  0.71455533583358
 1  12.31321886408641  0.08259582008201  1.80460414371437
 1  12.60139229322932 -0.94536275687569  0.10041704420442
 1  13.36413128312831  1.46993653865387 -0.59739864446445
 1  13.60445249004900  1.77275152645265  1.16560234963496
 1  14.78239966576658 -0.64409192519252  0.27053886268627
 1  14.46004590449045  1.08732912841284  2.83683645664566
 1  14.62700997449745 -0.87575524742474  2.67250474857486
 1  16.06205323842384  0.06733315021502  2.70061653935393
 1  15.36516765166517  1.63591358475848 -0.54121409610961
 1  15.78864289688969  2.12161169666967  1.04450277347735
 1  17.67150846594659  0.16016918751875  0.61349153585359
 1  16.88229575377537  0.16861503070307 -1.09384076147615
 1  18.37769277637764  2.39371591939194 -1.30140312861286
 1  18.65106510261026  2.68775268216822  0.35150182068207
 1  19.59937249844985  0.21689453565357  0.62653600440044
 1  19.86249456745675  0.58782383198320 -2.92586471167117
 1  21.27428171817182 -0.39809161096110 -2.10005413881388
 1  19.50056278327833 -1.13457117551755 -1.50602867756776
 1  20.86381315991599  2.99445902500250  0.24812556615662
 1  22.08194593489349  1.31962854555455  0.00229751475148
 1  21.14971162406241  2.39773726092609 -1.40726552285228
 1 -0.22089771487149 -4.35965871527153  2.02240058805881
 1 -1.19771945294529 -4.89992726642664  3.74537517411741
 1 -0.36183019631963 -3.18737721482148  3.05984013721372
 8 -11.92294066836684  3.69602440164016 -0.84874668836884
 1 -12.66969748124813  2.01149238933893 -1.52726333133313

