%nproc=4
%Mem=2GB
# td=(NStates=1) iop(3/107=0140000000,3/108=0140000000) iop(3/107=0140000000,3/108=0140000000) CAM-B3LYP/6-31G(d,p) 

TD

0 1
12 -6.77162973507351  0.57033617771777  0.19046666616662
 6 -4.51296840334033 -2.25186360816082  0.45243552055206
 6 -4.20573238863886  2.74520615371537  0.81718460006001
 6 -8.96283898859886  3.18559258335834 -0.14045354705471
 6 -9.25204330193019 -1.63325635523552 -0.61282134083408
 7 -4.72368744064406  0.16440583828383  0.47890692279228
 6 -3.97732499809981 -0.96803651045105  0.78310886628663
 6 -2.41148456705671 -0.70169192839284  1.04627668996900
 6 -2.50277024282428  0.89843999279928  1.08971113361336
 6 -3.84694095699570  1.38623870907091  0.76123089778978
 6 -2.19423570927093  1.49034082998300  2.61630619341934
 6 -1.58433718211821 -1.08830139353935 -0.08325699939994
 6 -0.09583770207021 -1.11787349394939  0.20665973947395
 6  0.91762284148415 -1.33742097899790 -0.78896707050705
 8  0.70560062816282 -1.25041765426543 -1.90634162436244
 8  2.00939122572257 -1.96715701430143 -0.15875079757976
 7 -6.50013175537554  2.52920329032903  0.32768651655166
 6 -5.52448300920092  3.25579422262226  0.52448874507451
 6 -5.85679989518952  4.82103178797880  0.63387825642564
 6 -7.09306001940194  4.92435852635264  0.28410499379938
 6 -7.66972867676768  3.52956176457646  0.09303413481348
 6 -4.88677359765977  5.92916034653465  1.06966463446345
 6 -8.00999256055606  6.12196911701170  0.43271279497950
 8 -7.64594851105111  7.26764838143814  0.62056991379138
 7 -8.76549010251025  0.74728558775878 -0.34360700980098
 6 -9.43803747614762  1.86614134943494 -0.53075412771277
 6 -10.94731136143614  1.64626449754975 -0.73963974517452
 6 -11.04946930443044  0.29875077947795 -0.99991084658466
 6 -9.74453611691169 -0.29744790799080 -0.63291536823682
 6 -12.01138791409141  2.70032622572257 -0.96771142194219
 6 -12.28026114661466 -0.40436399869987 -1.46469460316032
 6 -11.96136299839984 -1.01729389458946 -2.91134392909291
 7 -6.96241272417242 -1.40844340564056  0.05179253475348
 6 -8.02143480508051 -2.16850684738474 -0.21556475447545
 6 -7.71075866096610 -3.69472679507951 -0.42945395549555
 6 -6.42168778997900 -3.55912507340734 -0.10005826642664
 6 -5.86717300600060 -2.18074688918892  0.06741292559256
 6 -8.55127365086509 -4.78422580038004 -0.51968478437844
 6 -5.29422562706271 -4.50839663776378  0.04164218991899
 8 -5.27317906660666 -5.69161970027003  0.13000350695069
 6 -4.17278100350035 -3.58097865706571  0.50743539073907
 6 -3.39403291419142 -3.93351952745275  1.74736444944494
 8 -3.84055929602960 -4.10714744954495  2.86929559935994
 8 -2.08168984388439 -3.88761506680668  1.63685362456246
 6 -1.11143966606661 -4.36464155425543  2.63327775297530
 6  3.02208410121012 -2.19022419931993 -1.29398064216422
 6  4.16366013341334 -1.25169217031703 -1.03084861716172
 6  5.08811956735674 -0.94104097549755 -1.79812601420142
 6  5.15653963776378 -1.52149528422842 -3.14519150135013
 6  6.18826265086509  0.07061940904090 -1.53238979747975
 6  7.35508420242024 -0.55157093919392 -0.79950668796880
 6  8.37573013331333  0.46134176877688 -0.37742622312231
 6  9.63958704810481 -0.21816873717372  0.26696839113911
 6  9.32929044534453 -0.65691450615061  1.68250261906191
 6  10.90101243124312  0.79378423262326  0.27070190859086
 6  12.24784005450545  0.14855616281628  0.36921523272327
 6  13.50200174277428  1.01750902560256  0.02812571097110
 6  14.92186852205221  0.47264054215422  0.37184184628463
 6  14.84638962706271  0.15770348984898  1.82135205920592
 6  16.10536016441644  1.32284718671867  0.05543874917492
 6  17.47804728282828  0.65743096749675  0.04257738383838
 6  18.61132067946795  1.58160535173517 -0.46184633143314
 6  20.03797599869987  1.09995849064906 -0.44441452515252
 6  20.18831863316332  0.23821925222522 -1.57586337753775
 6  21.02330949984999  2.10109152715272 -0.39124422032203
 1 -3.30762140044004  3.26368761976198  1.16675607730773
 1 -9.71868585108511  3.92823190829083 -0.23329696359636
 1 -10.01995448704871 -2.40931133043304 -0.74022684858486
 1 -2.08519103590359 -1.21539915771577  2.02890293859386
 1 -1.80512985158516  1.46592706890689  0.38179463286329
 1 -1.04712609630963  1.13494180858086  2.81521223232323
 1 -2.42196036993699  2.62329090549055  2.76621273907391
 1 -2.57551988448845  1.09945783108311  3.37621349044905
 1 -1.86031505180518 -1.99799107210721 -0.67313510031003
 1 -1.85286045504551 -0.59324079697970 -0.99856964776478
 1  0.31616961526153 -0.00333176647665  0.60518638383838
 1  0.10282656285629 -1.75773210701070  1.04929516161616
 1 -4.05631016141614  6.37143497139714  0.26433139083908
 1 -5.27098737933793  7.18183085898590  1.12027893399340
 1 -4.53204423262326  5.38133709470947  2.23312108440844
 1 -8.76373938803880  5.84619972917292 -0.29010538633863
 1 -12.75000455405540 -1.12099296679668 -0.71250567776778
 1 -13.21376759175918  0.34775117491749 -1.44670230663066
 1 -12.78028585168517 -1.31109322472247 -3.45761287838784
 1 -11.69980694449445 -0.05422800130013 -3.62599476897690
 1 -11.07790461486149 -1.73065638263826 -2.64371097849785
 1 -9.14426360966097 -4.58598515411541 -1.30696292429243
 1 -8.02709792439244 -5.68555856845685 -0.75925557745775
 1 -9.18093537353735 -4.88963092429243  0.60357496699670
 1 -3.40351993339334 -3.60123384828483 -0.06879518631863
 1  3.46139775517552 -3.24626189999000 -1.08292400950095
 1  2.41858614741474 -2.18014392939294 -2.42107234253425
 1  4.22911023872387 -1.24755750415042 -0.11827822622262
 1  4.50257331433143 -1.34979845234523 -3.87332744774477
 1  5.89808338673867 -1.21151982738274 -3.18457968186819
 1  5.03311713911391 -2.24297691199120 -3.06878106190619
 1  6.50986140804080  0.62664800220022 -2.55840845804581
 1  5.87728283768377  1.00762631043104 -0.89252351575157
 1  6.97696887578758 -1.06199439653965  0.12128384998500
 1  7.67533293169317 -1.48401719201920 -1.45385486138614
 1  8.64302643404340  1.06234682948295 -1.62788557385739
 1  7.82038053615361  1.56523171137114  0.15135084348435
 1  10.08642108920892 -0.93566100980098 -0.22479963756376
 1  8.37733997829783 -1.51834064976498  1.69021738253825
 1  10.14236030543054 -1.04233811501150  2.25621751315132
 1  8.93165637723773  0.24860363796380  2.33387469256926
 1  10.83381701950195  1.37424018391839 -0.50683785538554
 1  10.69282902950295  1.43533240884088  0.90014389468947
 1  12.15493303550355 -0.30833327282728  1.65524920822082
 1  12.06030818481848 -0.99368758935894 -0.35151814931493
 1  13.48388325832583  1.34996454145415 -0.92406131073107
 1  13.36103814861486  1.96756100740074  0.70956674607461
 1  15.05560698649865 -0.39276679267927 -0.04808299949995
 1  14.60688058795880  1.37324772027203  2.27935070807081
 1  13.90244751825182 -0.53574124602460  1.96488398649865
 1  15.69061609470947 -0.40130371347135  2.42162864056406
 1  15.97095823072307  1.75730572397240 -0.99590956565656
 1  16.17914194679468  2.20392992849285  0.76895521872187
 1  17.67328864396439  0.23580675127513  0.82475266196620
 1  17.65372289648965 -0.12142397319732 -0.76778815621562
 1  18.26612161926193  1.73441998979898 -1.60077306560656
 1  18.58700869696970  2.52842674957496  0.04886155665567
 1  20.16999956115612  0.30667351355136  0.33496684748475
 1  20.49505782378237  0.88307335693569 -2.52478460366037
 1  21.23950824082408 -0.20972277407741 -1.32749688308831
 1  19.59219194619462 -0.66679439783978 -1.89511758645865
 1  21.18777555615561  2.63709328842884  0.34454520812081
 1  21.68068580888089  1.82776935963596 -0.48723143814381
 1  20.72483913681368  2.58512599979998 -1.14810960726073
 1  0.06497087198720 -5.08305105450545  2.04084243224322
 1 -1.54931461246125 -5.59425669936994  3.28788942554255
 1 -0.74934894819482 -3.72258073517352  3.28657281048105
 8 -11.70716909120912  3.79135393459346 -0.91335314901490
 1 -12.87775828732873  2.12228346844684 -1.28508911391139

