%nproc=4
%Mem=2GB
# td=(NStates=1) iop(3/107=0140000000,3/108=0140000000) iop(3/107=0140000000,3/108=0140000000) CAM-B3LYP/6-31G(d,p) 

TD

0 1
12 -6.89015158725873  0.61813095719572  0.18200582008201
 6 -4.73561066756676 -2.14756317811781  0.47953823082308
 6 -4.24482629802980  2.65397703080308  0.91478436003600
 6 -8.89333203790379  3.25642966706671 -0.33811331303130
 6 -9.42663076067607 -1.75265829542954 -0.64342440114011
 7 -4.78491356325632  0.30188958665867  0.70060909300930
 6 -4.19264653025303 -0.92801250805080  0.62956351175117
 6 -2.68394181278128 -0.70755251445145  1.05031709400940
 6 -2.50721068686869  0.79550969976998  1.25562772527253
 6 -3.80446670957096  1.32689277447745  0.92004677937794
 6 -2.16303258895890  1.16968876477648  2.71602616541654
 6 -1.64827357575758 -1.05892845624562 -0.13007168086809
 6 -0.07856597489749 -0.94843655025503  0.35161423492349
 6  0.74756583578358 -1.26686392329233 -0.73167134093409
 8  0.83483355145515 -0.80073268576858 -1.96932792299230
 8  1.82425271187119 -1.87160745934593 -0.34665958845885
 7 -6.55046678887889  2.60906127612761  0.38033178107811
 6 -5.42670323122312  3.25218386158616  0.60670696689669
 6 -5.75168938413841  4.80169985478548  0.58280314891489
 6 -7.05438615201520  4.91920801130113  0.32843942724272
 6 -7.56546825072507  3.62579138753875 -0.04541971057106
 6 -4.76460138043804  5.88506593709371  1.15450311831183
 6 -7.89223078437844  6.14328124822482  0.19547907160716
 8 -7.22901681788179  7.18595021162116  0.31144900170017
 7 -8.74235778927893  0.78153901310131 -0.40571322042204
 6 -9.48950262266227  1.92992772807281 -0.59670072237224
 6 -10.77211384168417  1.66558642974297 -0.72373815501550
 6 -11.03743810131013  0.34425532993299 -0.83150400590059
 6 -9.75563722702270 -0.29809797299730 -0.69824190089009
 6 -11.67691446674667  2.72963915701570 -1.02895754655466
 6 -12.25893901440144 -0.49059262156216 -1.09425755945595
 6 -12.31509837193719 -1.07156932213221 -2.64791758645865
 7 -7.18429491239124 -1.45041760306031 -0.07312995749575
 6 -8.16937959955995 -2.20619061576158 -0.39821301930193
 6 -7.72481006610661 -3.79242656505650 -0.34502551265126
 6 -6.40052567376738 -3.61112027292729 -0.18526678727873
 6 -6.03669995869587 -2.33794260876088  0.10552673697370
 6 -8.58033655715572 -4.95352273007301 -0.62495531143114
 6 -5.15058126262626 -4.42481827992799 -0.01364333863386
 8 -4.91868361706171 -5.77835837413741  0.03320382698270
 6 -3.94509823522352 -3.36133669286929  0.51093574077408
 6 -3.38251176207621 -3.77580375587559  1.75363507650765
 8 -3.91255649574958 -3.90165690049005  2.76159482928293
 8 -1.90056173107311 -3.72357866316632  1.60341028022802
 6 -1.30122864496450 -4.05251034113411  2.82715714091409
 6  3.13658555135514 -2.19397457435744 -1.28781002510251
 6  4.16120988838884 -1.19245624672467 -0.96307183948395
 6  5.19043979937994 -0.88824569596960 -1.78904510611061
 6  5.32417640144014 -1.67976111081108 -2.88322530473047
 6  6.29904372897290  0.04601694879488 -1.39981654015402
 6  7.39955864986499 -0.69522530463046 -0.82195893319332
 6  8.44272683298330  0.20981661626163 -0.39506798729873
 6  9.76466955635564 -0.52800972127213  0.22694438873887
 6  9.61272878917892 -1.18446726142614  1.43805817461746
 6  10.92509483948395  0.65719057325733  0.26228106650665
 6  12.40040531103110 -0.10039873267327  0.26704501570157
 6  13.47916945954595  0.85755303000300  0.37833073147315
 6  14.86827316251625  0.17385066316632  0.37908257035704
 6  15.00180516861686 -0.47099938043804  1.85007493149315
 6  15.94102373077308  1.25823072507251  0.09585279057906
 6  17.22841231933193  0.67465268966897  0.09933305940594
 6  18.35513506090609  1.93943113431343 -0.29246939373937
 6  19.73095529662966  1.38722721752175 -0.48681876557656
 6  19.96795659695970  0.63451888218822 -1.81505729692969
 6  20.85245241414141  2.50164158215822 -0.50491558745875
 1 -3.19794043234323  3.53786503750375  1.13473287498750
 1 -9.50979496199620  3.88083716881688 -0.27802143604360
 1 -10.12949544114411 -2.37301770107011 -1.09685251115111
 1 -2.38023053985399 -1.33590120792079  1.95016506480648
 1 -1.87479681828183  1.05012548874887  0.51795824922492
 1 -1.04747613131313  1.01107942234223  2.96961767286729
 1 -2.33016119001900  2.16455503190319  2.79659577737774
 1 -2.79554188668867  0.55632351765177  3.38475434453445
 1 -2.02353137343734 -2.13043431643164 -0.15740352715271
 1 -2.08602377137714 -0.39484095699570 -0.99640943174317
 1 -0.12780478217822  0.31513007970797  0.88973483868387
 1  0.01755803600360 -1.84598093189319  0.89937016911691
 1 -3.78548307870787  5.66008383628363  0.39751470917092
 1 -4.58981926252625  7.00880355625563  0.69821672777278
 1 -4.72345337353735  5.67275623662366  2.51544931723172
 1 -8.99319233333333  6.20475558475848 -0.00768714451445
 1 -12.47399695329533 -1.12116298379838 -0.26392081928193
 1 -13.00935715071507  0.22994939473947 -1.13516115251525
 1 -13.22497032013201 -1.70921303670367 -2.63903102020202
 1 -12.33746070987099 -0.15836841534153 -3.28197036653665
 1 -11.47644446884688 -1.61779509650965 -3.19575618301830
 1 -8.95958514181418 -4.70573712931293 -1.44177640564056
 1 -7.70507572217222 -5.78141815441544 -0.46476612851285
 1 -9.33569084908491 -5.08581054225423 -0.00995638613861
 1 -2.74854443584358 -3.47803152805281 -0.31152945974597
 1  3.04282589798980 -3.47517479127913 -1.20212592969297
 1  2.59525381418142 -2.06564247924792 -2.30750098539854
 1  3.95452277997800 -0.37011976037604  0.14442804440444
 1  4.37926098309831 -1.38918239073907 -3.64861497649765
 1  6.54098767716772 -1.04153282868287 -3.28769999389939
 1  5.32654648204821 -3.14936755105511 -3.01398558235824
 1  6.32772319421942  0.99013435083508 -1.95786840404040
 1  6.03622873227323  0.49874542234223 -0.63126739013901
 1  7.11719289818982 -1.28092628972897 -0.17313559195920
 1  7.67926332473247 -1.28742753305330 -1.73487296319632
 1  8.91343347474747  0.96253684848485 -1.60000278557856
 1  8.02643114121412  0.77350253845385  0.46378208660866
 1  9.94239668676868 -1.17437488118812 -0.87614477207721
 1  8.54058630293030 -1.78101691739174  1.32850121092109
 1  10.29172524192419 -1.91535541674167  1.60506239763976
 1  9.38000121172117 -0.29897111951195  2.43165447054705
 1  10.93162680048005  0.89591235113511 -0.93568073967397
 1  10.94532427902790  1.58771764736474  1.20076395669567
 1  12.45073261546155 -0.70813325282528  0.85639932323232
 1  12.41229338333833 -0.79014723532353 -0.53884688218822
 1  13.28741361136114  1.84574411941194 -0.30787969256926
 1  13.50225227002700  1.70490474177418  1.05097088648865
 1  14.79653107890789 -0.45672318831883 -0.17877606880688
 1  15.15601550145015  0.60956135163516  2.71649442244225
 1  13.97580485398540 -0.95780345224522  1.99932743084308
 1  16.00937797089709 -1.07973155625563  1.94440091779178
 1  15.61919305420542  1.91465145854585 -0.74997497219722
 1  15.96146017861786  1.94436397189719  0.75666398959896
 1  17.51979329442944  0.17417058765877  1.22624281098110
 1  17.86385390959096 -0.25258708950895 -1.03230460786079
 1  18.02847785488549  2.52796934473447 -1.26692968126813
 1  18.25406540264026  2.75252915981598  0.70010668116812
 1  20.04664722592259  0.89758260446045  0.26562991379138
 1  19.99090740874087  1.23802885248525 -2.65167729292929
 1  20.79790408040804 -0.26014781658166 -1.66095022842284
 1  19.09513224022402  0.19000128172817 -2.20762883758376
 1  20.42215899449945  2.71796137523752  0.51877263086309
 1  22.09361710201020  2.06495307800780 -0.70369308430843
 1  20.49022567546755  3.41341882908291 -1.16369116541654
 1 -0.38620424552455 -3.62098484788479  2.68023637163716
 1 -1.62068174917492 -5.18868614231423  3.17838847544754
 1 -1.96940095339534 -3.53815229232923  3.64421857505751
 8 -11.55313368766877  3.91607640684068 -1.02572438613861
 1 -12.69345985748575  2.17498873897390 -1.11456206120612

