%nproc=4
%Mem=2GB
# td=(NStates=1) iop(3/107=0140000000,3/108=0140000000) iop(3/107=0140000000,3/108=0140000000) CAM-B3LYP/6-31G(d,p) 

TD

0 1
12 -6.78399097119712  0.70432957705771  0.20124774427443
 6 -4.47354446094609 -1.95574399619962  0.50280055705571
 6 -4.39931174657466  2.73078471157116  0.94426730833083
 6 -8.87645034973497  3.17229125322532 -0.27685718741874
 6 -9.42727082468247 -1.58690171977198 -0.68667872657266
 7 -4.71187625952595  0.36706610431043  0.75761479357936
 6 -3.98507577317732 -0.78626833363336  0.66868742414241
 6 -2.60373379197920 -0.51903366256626  1.07579964226423
 6 -2.43838380418042  1.09452960176018  1.25925808830883
 6 -3.83475973887389  1.49108919411941  0.81323609830983
 6 -1.93304959065907  1.60250204610461  2.60554511731173
 6 -1.65529427782778 -1.17325988938894 -0.12772144584458
 6 -0.16665478377838 -1.42054376097610  0.42803187668767
 6  0.76150722992299 -1.61995923282328 -0.76833500730073
 8  0.68301836993699 -1.38881149364936 -1.97399839003900
 8  1.84533482008201 -2.26469676827683 -0.08615353785378
 7 -6.63659540174017  2.66360673067307  0.26175992389239
 6 -5.60170073097310  3.20218886208621  0.66844314051405
 6 -5.88088230343034  4.82999268406841  0.78063293189319
 6 -7.12630334373437  5.08097418791879  0.28736531983198
 6 -7.65020672457246  3.60561937033703  0.01363619501950
 6 -4.84325924622462  5.78102553305331  1.09427709570957
 6 -7.75226678797880  6.27138405850585  0.13519304300430
 8 -7.33118703490349  7.36878849544954  0.44616247304730
 7 -8.73345689918992  0.81187204640464 -0.27273992309231
 6 -9.42187585998600  1.94927966326633 -0.44535558785879
 6 -10.73512014231423  1.74030390149015 -0.88657443864386
 6 -10.84805916341634  0.24551545594559 -0.98972982848285
 6 -9.62159382268227 -0.27352551575157 -0.69751182788279
 6 -12.01574835013501  2.71901809490949 -1.11711636243624
 6 -12.11303442394239 -0.18565212751275 -1.33277141084108
 6 -12.18264512661266 -0.60045221042104 -2.78177097179718
 7 -6.94376085898590 -1.26296885818582 -0.03974661916192
 6 -8.17457011861186 -2.11296129282928 -0.39574277227723
 6 -7.92204979007901 -3.53852117451745 -0.25211622172217
 6 -6.34228985018502 -3.51162032293229 -0.09405766636664
 6 -5.98590487918792 -2.16463527802780  0.14159034333433
 6 -8.80702922642264 -4.72036941474147 -0.61168398429843
 6 -5.22337854235424 -4.36775257335734  0.11976000170017
 8 -5.18268001670167 -5.65777631593159  0.37977848444844
 6 -3.92066579197920 -3.34358491769177  0.51369601680168
 6 -3.30562407330733 -3.76092226772677  1.73866357935794
 8 -3.79487472757276 -4.11022775757576  2.82492116191619
 8 -1.89947162206221 -3.67384368966897  1.68544848404840
 6 -1.13229175127513 -4.12398748884889  2.76412083728373
 6  2.90588248104810 -2.57976315321532 -0.99498074217422
 6  4.15584935233523 -1.63948094919492 -1.01850738303830
 6  5.12600335573557 -1.53158002940294 -1.90092629422942
 6  5.39638362216222 -2.43839697439744 -3.08860584278428
 6  6.16545036963696 -0.51569922282228 -1.54121067956796
 6  7.52301099509951 -1.21397717981798 -0.87851458875888
 6  8.55553811411141 -0.19179354475448 -0.49795827632763
 6  9.97126021542154 -0.66666358665867 -0.22264056975698
 6  9.92470998729873 -1.58597741244124  0.99272364116412
 6  10.99634196419642  0.38460331453145  0.10296513491349
 6  12.35379064956496 -0.19233792659266  0.07086539773977
 6  13.41197273987399  0.84211148584858  0.52716561496150
 6  14.87991432663266  0.37864114221422  0.49085374747475
 6  15.21299628772877 -0.46999928042804  1.70504042804280
 6  15.83798342674267  1.55305020702070  0.41055426072607
 6  17.31787126522652  1.12397762216222  0.11664479057906
 6  18.38868841624162  2.17873506470647  0.13034288748875
 6  19.61899410051005  1.87851634643464 -0.39672975667567
 6  19.66272607390739  1.49296472677268 -1.99896568776878
 6  20.62429959885989  3.04710612861286 -0.27928302420242
 1 -3.50052069036904  3.52563381438144  1.05040444214421
 1 -9.59425340784078  3.96135522062206 -0.25345897979798
 1 -10.48792128372837 -2.14057445674567 -0.89383220912091
 1 -2.70533305010501 -1.23316093389339  1.95826587488749
 1 -1.95138447704770  1.63458393459346  0.39551600500050
 1 -0.88145952965297  0.82627094149415  2.96484719581958
 1 -1.71019919381938  2.77484606100610  2.55933205100510
 1 -2.74003633613361  1.38878676397640  3.40721659075908
 1 -2.06075509580958 -2.03869514251425 -0.34009179597960
 1 -1.68445361436143 -0.34022549544955 -1.16140593139314
 1  0.30628862716272 -0.55084651795179  0.93351921712171
 1 -0.06419013881388 -2.24120045384538  1.05195542764276
 1 -4.06744127452745  6.06663449134913  0.06450140784078
 1 -5.45542582318232  6.59705238113811  0.95706261236124
 1 -4.54633566176618  5.68802776377638  1.97292506480648
 1 -8.80328334243424  6.04856996619662 -0.32130850665067
 1 -12.01523107670767 -1.24441530903090 -0.83534796199620
 1 -12.96718293329333  0.29753615341534 -0.77009464586459
 1 -13.05666348944895 -1.38030014541454 -3.15706282338234
 1 -12.15126209000900  0.41267868936894 -3.66155832533253
 1 -11.41635846024603 -1.29732304930493 -3.29489609700970
 1 -8.56526570987099 -4.80976753235324 -1.70915314331433
 1 -7.98691390599060 -5.74873488608861 -0.24857450935094
 1 -9.95684296429643 -4.76403836503650 -0.09590498099810
 1 -3.07485706710671 -3.36749047394740 -0.55492379917992
 1  3.23671528692869 -3.62144941874188 -0.53478919601960
 1  2.42350663946395 -2.27604351935193 -2.09990022532253
 1  4.43895122282228 -0.88024077247725 -0.19638603700370
 1  4.55066812381238 -2.30087355985599 -3.92646276127613
 1  6.53653723212321 -2.27186586198620 -3.51045226912691
 1  5.47391121852185 -3.54766738103810 -3.01140532433243
 1  6.35069549144914 -0.03754841744174 -2.40645326252625
 1  6.04571968136814  0.04577012481248 -0.93403766716672
 1  7.26687786668667 -2.25979417651765 -0.05504378277828
 1  8.04361976037604 -1.87231602190219 -1.67392686858686
 1  8.65226735813581  0.67954854965497 -1.43819660496050
 1  8.19711820992099  0.67760294849485  0.55780148854886
 1  10.22873532063206 -1.69407685138514 -0.88210536813681
 1  9.31949419371937 -2.48520733643364  0.90341870267027
 1  10.93674974437444 -1.79233311451145  0.99761165256525
 1  9.75026823842384 -1.06724794719472  1.87083838893889
 1  10.80625426322632  1.25017777767777 -0.06207337893789
 1  10.85637538413841  0.55132400800080  1.36111999229923
 1  12.49594713691369 -1.38121056055605  0.69983366666667
 1  12.84403655765577 -0.47842606320632 -1.19982297979798
 1  13.33937880788079  1.76652619761976 -0.11789069366937
 1  13.03487553235323  1.06283053435343  1.80039582898290
 1  14.80978240404040 -0.29893740974097 -0.40094828602860
 1  15.30833073297330  0.28127852335234  2.72907568056806
 1  14.39237651115111 -1.51951962386239  1.74987248534854
 1  16.30763779687969 -1.06992057515751  1.28559503720372
 1  15.61688282318232  2.19160915431543 -0.25059503420342
 1  16.03816784938494  2.08411794729473  1.44532285548555
 1  17.72951426652665  0.56862003260326  0.95969615631563
 1  17.25179270347035  0.37381555075507 -0.95499687708771
 1  17.95614062116212  2.87750429822982 -0.27184017231723
 1  18.58933892999300  2.52215612251225  0.91892856335634
 1  20.00056261746175  0.98424127032703  0.04528787958796
 1  19.46135445344534  2.37237228682869 -2.55338746394639
 1  20.61914620462046  0.93374157235723 -2.29491362476247
 1  18.74254698169817  0.68596087768777 -2.27838591329133
 1  19.93026980558056  4.07431701080108  0.50025077867787
 1  21.78627636793679  2.43273985668567  0.30353763876388
 1  20.80774742764276  3.26648413561356 -1.50901569786979
 1  0.18496287118712 -4.38874162356236  2.57358570657066
 1 -1.47985766676668 -5.49511678537854  2.69383001960196
 1 -1.33857787108711 -3.43081155825583  3.75652980618062
 8 -11.93038141244124  3.99032383158316 -1.03583539723972
 1 -12.97515802730273  2.23206444654465 -1.81787239223922

