%nproc=4
%Mem=2GB
# td=(NStates=1) iop(3/107=0140000000,3/108=0140000000) iop(3/107=0140000000,3/108=0140000000) CAM-B3LYP/6-31G(d,p) 

TD

0 1
12 -6.68479105120512  0.61993113721372  0.07440506000600
 6 -4.51544865136514 -2.07587600940094  0.63074335133513
 6 -4.02935475087509  2.87361899499950  0.89203208480848
 6 -8.86155886058606  3.27032105620562 -0.19312881458146
 6 -9.43861195879588 -1.65199822942294 -0.56235629432943
 7 -4.59581465336534  0.41291068876888  0.44297332943294
 6 -3.86630389598960 -0.86238594539454  0.66639719511951
 6 -2.33066648524853 -0.79479123832383  0.86763882618262
 6 -2.40080004580458  0.75596574537454  1.17474963746375
 6 -3.75973223612361  1.37287737293729  0.78070284498450
 6 -1.96619290499050  1.12327412331233  2.60394495729573
 6 -1.53547229562956 -1.21426398979898 -0.27970664436444
 6 -0.10380849914992 -1.59305101170117  0.11472054555456
 6  0.89534061326133 -1.60132736963696 -1.00287846164616
 8  0.65949601770177 -1.27187980048005 -2.18664965516552
 8  1.98658894549455 -2.33579387798780 -0.52334725722572
 7 -6.45958770097010  2.55982635263526  0.22524627252725
 6 -5.24766532743274  3.25085372857286  0.59673596979698
 6 -5.57673188838884  4.91364104890489  0.57804267286729
 6 -6.96360707410741  4.89070516101610  0.30527711101110
 6 -7.55608731263126  3.43805261366137  0.17234206560656
 6 -4.62724764506451  5.69355678617862  0.97403507150715
 6 -7.87881944324432  6.04622154225423  0.44073359705971
 8 -7.36716063226323  7.28800041664166  0.37878573537354
 7 -8.77309086258626  0.69935079427943 -0.35021767086709
 6 -9.32393606600660  1.91017575287529 -0.36068712101210
 6 -10.78159478977898  1.78507837893789 -0.80886666786679
 6 -11.05576993449345  0.21600250465046 -0.76722757825783
 6 -9.80339200250025 -0.41762992619262 -0.50776285298530
 6 -11.69858663396339  2.73743993709371 -0.98532318311831
 6 -12.13683680418042 -0.54236779907991 -1.18287642134213
 6 -12.10403726582658 -0.61112327752775 -2.52524531923192
 7 -6.96392287518752 -1.44246680798080 -0.09895253975398
 6 -8.13845650725072 -2.19074907160716 -0.41093429142914
 6 -7.73888147324733 -3.56800412281228 -0.42447345744574
 6 -6.48315393659366 -3.60216937783778  0.00837257665767
 6 -6.07203349204921 -2.33196201070107  0.40063624792479
 6 -8.56627515101510 -4.73855123292329 -1.01269408530853
 6 -5.28648485298530 -4.51134693279328  0.20838886458646
 8 -5.06358810751075 -5.71068160646065  0.18351885848585
 6 -4.07326105150515 -3.55925648484849  0.67138178537854
 6 -3.60708421932193 -3.72650882638264  2.07721743474347
 8 -4.33219845994600 -3.91710844564457  3.10811948174817
 8 -2.26311798669867 -3.71927823312331  1.99902984218422
 6 -1.44850337243724 -4.08729381948195  3.21620604580458
 6  3.12242413521352 -2.28952412931293 -1.49268051215122
 6  4.15425919331933 -1.27481448254825 -1.15404093639364
 6  5.09367012241224 -0.97548441984198 -2.07141334293429
 6  5.17943192699270 -1.57154028872887 -3.44214119631963
 6  6.10925475007501  0.24217656475648 -1.74032059055906
 6  7.26412510651065 -0.57437321942194 -1.11332807010701
 6  8.56407896819682  0.41285692029203 -0.78021650215021
 6  9.74322741214121 -0.40938785908591 -0.25575388108811
 6  9.14394191049105 -1.05554436913691  1.05353972277228
 6  11.04753708370837  0.51562641684168 -0.22246740834083
 6  12.32356762726273 -0.09891858465847  0.08717702890289
 6  13.36070761336133  1.00241751645165  0.35092799119912
 6  14.74971130633063  0.37826110421042  0.59438410051005
 6  14.87409239733973 -0.07469975047505  2.16280620462046
 6  15.84223385178518  1.36564146614661  0.13771697699770
 6  17.38430790889089  0.76796202060206  0.37256038213821
 6  18.33706325372538  2.02683987518752  0.06243609680968
 6  19.65926812791279  1.41551004580458 -0.13641372507251
 6  19.73206300760076  0.69384481478148 -1.42179797099710
 6  20.88905607450745  2.59450086808681 -0.05631072697270
 1 -3.26362700100010  3.47069832083208  1.26242564426443
 1 -9.73312729522952  4.09289837493749 -0.36955058895890
 1 -10.33988648024802 -2.41827222652265 -1.09836266216622
 1 -2.09344186098610 -1.25134275207521  1.87232728102810
 1 -1.61428076667667  1.38673915011501  0.49826628002800
 1 -0.88764014771477  0.75236355075507  3.00444115521552
 1 -1.78687686158616  2.59390796719672  2.25084120192019
 1 -3.09442177467747  0.78961684698470  3.27490335943594
 1 -2.01204022432243 -2.19912118511851 -0.68252603940394
 1 -1.60458562756276 -0.64491596449645 -1.33370316111611
 1  0.39611761006101 -0.56856829012901  0.78173403860386
 1 -0.04891861166117 -2.25487182098210  0.91646187828783
 1 -3.63974850525053  6.01747957585759  0.26347130483048
 1 -4.98007828842884  6.41288396429643  0.86091299739974
 1 -4.39018004620462  5.83122208320832  1.96907467976798
 1 -9.15765877997800  5.73478858805881  0.55314893909391
 1 -11.77221677527753 -1.54861572907291 -0.72318674587459
 1 -13.26240245524552 -0.33091669186919 -0.60482811921192
 1 -12.85066288938894 -1.40747286268627 -2.63033015011501
 1 -12.54432139593959  0.17460488198820 -3.18610077957796
 1 -11.14849167356736 -1.00615393239324 -2.97396400380038
 1 -8.22916209950995 -4.90626718231823 -2.29514174217422
 1 -8.32424763936394 -5.86067608020802 -0.76227587948795
 1 -9.62899017901790 -4.56371833303330 -0.39283467396740
 1 -3.20666024742474 -3.74841856675668 -0.06557486428643
 1  3.30420203560356 -3.36362363616362 -1.51020673777378
 1  2.73089737853785 -1.89205512051205 -2.59281951725172
 1  4.12911023872387 -1.08571131953195 -0.08637503590359
 1  4.23401645864586 -1.51030450295030 -3.91968208320832
 1  6.01638521692169 -1.03083175857586 -4.07476870077008
 1  5.24207803520352 -2.87458007230723 -3.24181836563656
 1  5.91396181808181  0.78660399779978 -2.92508512571257
 1  5.60332544194419  1.05841138893889 -1.01662592599260
 1  7.04264544344434 -1.27454565166517 -0.31120939933993
 1  7.78909430783078 -1.32669145944594 -1.64137361326133
 1  8.80215234663466  0.81521211601160 -1.71332411771177
 1  8.53989248734873  1.16037122532253  0.16706241464147
 1  10.02654510161016 -1.48517596129613 -0.82225938353835
 1  8.55338758305831 -1.66730554625463  0.74460282108211
 1  10.17641371077108 -1.64574845604560  1.79448133953395
 1  8.71821503310331 -0.58757998039804  1.82713401850185
 1  11.09222286008601  1.19812257215722 -1.10018719031903
 1  10.58119786638664  1.29553842944294  0.70255413571357
 1  12.28380592279228 -0.59736217571757  1.08985266856686
 1  12.49333148714872 -0.87209543014302 -0.50393339083908
 1  13.60794566456646  1.70765031003100 -0.68049695429543
 1  13.17731977677768  1.77297154845484  1.02620841024103
 1  14.57504893069307 -0.59282679867987 -0.13214140534053
 1  14.88911881178118  0.77915831133113  2.54919769276928
 1  14.17262453595359 -0.93064073597360  2.38870636873687
 1  15.76167320042004 -0.75909949304930  2.32880935863586
 1  15.55989712461246  1.76006600000000 -1.35740571527153
 1  16.06374040664067  2.50070960646065  0.74291261446145
 1  17.50693200830083  0.23140631123112  1.49109929662966
 1  17.49999752395239 -0.24446627742774 -0.58963034043404
 1  17.85891089818982  2.77678422622262 -0.84079706800680
 1  18.50551054715472  2.85923983088309  1.14175084558456
 1  19.86590915211521  0.63537638383838  0.52247559835984
 1  19.95698401640164  1.40718576817682 -2.32486461166117
 1  20.42449673967397 -0.05465726752675 -1.31460559395940
 1  18.72858558555856  0.12536481808181 -1.51241931663166
 1  20.76038281688169  3.03819339843984  0.77424817841784
 1  21.69226696699670  2.26565314801480 -0.39641235623562
 1  20.77556420932093  3.28737622482248 -0.89067386368637
 1 -0.22637826292629 -3.87198994839484  2.73089143714372
 1 -1.82919260026003 -5.30474774847485  3.60767140374037
 1 -1.63412742604260 -3.37760623772377  4.21403555675568
 8 -11.59731810611061  3.94779957915792 -0.67355916961696
 1 -12.43070358185819  2.44430567066707 -1.71313191819182

