%nproc=4
%Mem=4GB
# td=(NStates=1) iop(3/107=0140000000,3/108=0140000000) iop(3/107=0140000000,3/108=0140000000) CAM-B3LYP/6-31G(d,p) 

TD

0 1
12 -5.65653716031603  1.22625750005001  0.15651425662566
 6 -5.08714910211021 -2.18988745204520 -0.27890475727573
 6 -3.45576436553655  1.18546883168317  2.71104647794779
 6 -6.22724151985199  4.52207547174717  0.75512572137214
 6 -7.88138390549055  1.19312016271627 -2.39666734023402
 7 -4.49265351865187 -0.23989218101810  1.12036337513751
 6 -4.43518704620462 -1.59599330093009  0.73671602120212
 6 -3.29250237473747 -2.29588289108911  1.50303466716672
 6 -2.97962113311331 -1.23172606350635  2.62125868196820
 6 -3.67916534393439 -0.00943357105711  2.18137272247225
 6 -3.45967900730073 -1.77054049544954  3.95133783318332
 6 -2.01915710891089 -2.51368877817782  0.56792209770977
 6 -1.13220486398640 -3.54972255285529  1.38084167216722
 6  0.18640374087409 -3.81136497719772  0.58254644934493
 8  0.30016008030803 -3.50938825242524 -0.60998723292329
 8  1.09603644934493 -4.45755537283728  1.26032063936394
 7 -4.87904872117212  2.64680405730573  1.47028726042604
 6 -3.93534562436244  2.42145956765677  2.44332493579358
 6 -3.72514201790179  3.68480698289829  3.22862341854185
 6 -4.58446899959996  4.61570309860986  2.55629490079008
 6 -5.40010611481148  3.96371446664666  1.59919601190119
 6 -2.85113047614761  3.77161453725373  4.45135932533253
 6 -4.67531406200620  6.02029945044504  2.87436694149415
 8 -4.03058310631063  6.65828371637164  3.70620452035203
 7 -6.89061286118612  2.65841573737374 -0.68680033633363
 6 -7.03121583638364  3.95530514771477 -0.30344203290329
 6 -7.95632081848185  4.67205393019302 -1.25111922142214
 6 -8.51866131943194  3.64462139203920 -2.16049499389939
 6 -7.72831172167217  2.40060606940694 -1.75458140464046
 6 -8.33168615951595  6.00851076047605 -1.07509701850185
 6 -9.34821918521852  3.81018141634163 -3.33190782358236
 6 -8.59038049174917  4.19197734393439 -4.65838224222422
 7 -6.37415583458346 -0.17647266496650 -1.11310640264026
 6 -7.37295682528253 -0.05224129272927 -2.01412562326233
 6 -7.62549005620562 -1.36117782138214 -2.69591211381138
 6 -6.78850839963996 -2.17396696849685 -2.04169033473347
 6 -5.96880529592959 -1.51706527162716 -1.08450458085809
 6 -8.68895435323532 -1.78359848584858 -3.69023591979198
 6 -6.21651531863186 -3.55200078397840 -2.00036359145915
 8 -6.54237863336334 -4.49815751415142 -2.58479474457446
 6 -5.10441900400040 -3.64974302690269 -0.88926124592459
 6 -5.34994247164716 -4.78724416551655  0.10469414121412
 8 -5.81098687028703 -4.65553456155616  1.23172953635364
 8 -5.01333103130313 -5.94514571097110 -0.36708985358536
 6 -5.11562912711271 -7.09671152445245  0.48700052985299
 6  2.38265923912391 -4.96508762896290  0.57432138653865
 6  3.40621515651565 -4.07490765166517  0.93664156395640
 6  4.09458884908491 -3.21764463456346  0.10001363636364
 6  3.52209654855486 -2.81569651095109 -1.27219672417242
 6  5.22771919771977 -2.35076012361236  0.64061786058606
 6  6.61350622192219 -2.58088101330133 -0.04256278887889
 6  7.71926725032503 -1.82619197469747  0.62569826032603
 6  9.13002382368237 -1.93448828242824 -0.06259404190419
 6  9.65227160886089 -3.41918255865587  0.09045558785879
 6  10.09832041114111 -1.02475271267127  0.55147766326633
 6  11.38183548594860 -0.84471407830783 -0.25814458065807
 6  12.46302399099910  0.17787241474147  0.33072992059206
 6  13.63777623342334  0.35384025392539 -0.63002776597660
 6  14.60686898589859 -0.76355575817582 -0.40052420332033
 6  14.32141808140814  1.67462363396340 -0.27459671447145
 6  15.54436862726273  2.12616064426443 -1.12248724372437
 6  16.00626321072107  3.53230798359836 -0.64789540274027
 6  17.26605185428543  3.93970181178118 -1.30356429162916
 6  17.26873946364636  3.91005589728973 -2.78629085328533
 6  17.92276168226822  5.18487375267527 -0.73959341824182
 1 -2.94218994179418  1.15785006040604  3.68015848424842
 1 -6.58644662346235  5.37481286168617  1.06032502420242
 1 -8.71944235143514  1.15518582148215 -3.10648612741274
 1 -3.48344940974097 -3.27971328672867  2.17966602740274
 1 -1.93929105300530 -0.99931759335934  2.71000227632763
 1 -2.92099187828783 -2.72883604480448  4.26060960496050
 1 -3.30080087278728 -0.98512841724172  4.95879790959096
 1 -4.56173868556856 -1.85826490739074  3.85602955345535
 1 -2.11006632033203 -2.88348786608661 -0.53527415121512
 1 -1.34872270467047 -1.80281939823982  0.48090621222122
 1 -0.97622305580558 -3.52309360496050  2.54961918061806
 1 -1.54521924352435 -4.56581371257126  1.50982278027803
 1 -1.82945305910591  3.37200672507251  4.15951186088609
 1 -2.68184917501750  4.81282848884888  4.92127838553855
 1 -3.10753374837484  2.99237023452345  5.19476448244824
 1 -5.48584164806481  6.42615681008101  2.22401772317232
 1 -9.80453958745874  2.77598825592559 -3.40846409810981
 1 -9.87974877277728  4.70064390849085 -3.26370666136614
 1 -9.25252505230523  4.13354176817682 -5.61049625192519
 1 -7.96025553495349  5.18097784318432 -4.59495945094509
 1 -7.92725257425743  3.49573893269327 -4.79822974777478
 1 -8.84693228282828 -1.08666920982098 -4.59324032233223
 1 -8.40957194019402 -2.94404780988099 -3.94399703670367
 1 -9.72317239673968 -1.81613843724372 -3.24039094579458
 1 -4.14742209960996 -4.01788661526153 -1.21858514541454
 1  2.39933106610661 -5.97878582158216  0.89060501740174
 1  2.00581132453245 -4.98127510361036 -0.54809825942594
 1  3.72635475777578 -4.09383866566657  1.98372337993799
 1  2.60162514921492 -3.14312993409341 -1.48894143514351
 1  3.20515512881288 -1.68787234653465 -1.39509197969797
 1  4.35943811781178 -3.16599032823282 -2.05301422732273
 1  4.91319136003600 -1.38058448244824  0.42704458795880
 1  5.22263079037904 -2.63631526392639  1.83035791609161
 1  7.01279880658066 -3.61705489758976 -0.08145026102610
 1  6.53191335173517 -2.34688229722972 -1.14418501400140
 1  7.44473340464046 -0.65822914801480  0.54506175167517
 1  7.64907701060106 -2.01227781088109  1.72055644094409
 1  9.02977708700870 -1.61405968116812 -1.16916025412541
 1  8.96548106680668 -4.17160593199320 -0.06441023342334
 1  10.63712305310531 -3.61466566866687 -0.43111322482248
 1  9.74234329572957 -3.71511260276028  1.13484392709271
 1  9.58466761736174 -0.11900617441744  0.79972533633363
 1  10.37035713321332 -1.50288682258226  1.61098063806381
 1  12.04721986328633 -1.86682671457146 -0.39571394459446
 1  11.24297038373837 -0.55362826772677 -1.37282861646165
 1  11.92525355885589  1.06716114531453  0.30583102790279
 1  12.77261208450845 -0.03544235283528  1.35957423762376
 1  13.40435723642364  0.31891632393239 -1.65323756245625
 1  15.01851118941894 -0.99814802750275  0.61397707770777
 1  14.37633320432043 -1.59767878417842 -0.69876619811981
 1  15.42720370877088 -0.57807100530053 -1.00908780128013
 1  13.75416361056106  2.62991761086109 -0.37048883658366
 1  14.72663936423642  1.45843613281328  0.80797801170117
 1  16.51990364616462  1.51147976067607 -1.11220771147115
 1  15.14788037143714  2.01654556735674 -2.15834721442144
 1  15.13502490709071  4.43218859685969 -0.87257925602560
 1  16.18736150625063  3.65021166256626  0.45732563296330
 1  17.98578225962596  2.95442693389339 -1.00143922352235
 1  16.15988670907091  4.41975850475048 -3.12814517431743
 1  18.10377630113011  4.44096360966097 -3.09594419951995
 1  17.36154635483549  2.89814088408841 -3.17814584918492
 1  17.88375442264226  5.18808002550255  0.50379204340434
 1  19.05950347264726  5.71636578877888 -0.99992690709071
 1  17.19949150005001  6.12432193529353 -0.92484654595460
 1 -4.96643194459446 -7.98176760986099 -0.24989852755276
 1 -6.22609704000400 -7.11992907950795  0.99065257275728
 1 -4.26218438703870 -7.23815539113911  1.30630508710871
 8 -7.78859645124512  6.73839033983398 -0.32412019601960
 1 -9.37033533063306  6.52065771067107 -1.60701638443844

