%nproc=4
%Mem=4GB
# td=(NStates=1) iop(3/107=0140000000,3/108=0140000000) iop(3/107=0140000000,3/108=0140000000) CAM-B3LYP/6-31G(d,p) 

TD

0 1
12 -5.57338884548455  1.17863273757376  0.19583818901890
 6 -5.14069445664566 -2.17392585588559 -0.25967283408341
 6 -3.41058984808481  1.14297458225823  2.85042041534153
 6 -6.22939173487349  4.56082934713471  0.64533474227423
 6 -7.99998576567657  1.18203905460546 -2.37314498799880
 7 -4.39604385768577 -0.28181637343734  1.03348468726873
 6 -4.22880640814081 -1.65059876147615  0.63643599319932
 6 -3.18249137363736 -2.29797310011001  1.55489985368537
 6 -2.94007717871787 -1.30899379027903  2.60249680578058
 6 -3.61308873627363 -0.03884651235124  2.10446503170317
 6 -3.50800383978398 -1.72312575397540  3.96788948834883
 6 -1.97059225242524 -2.61264867416742  0.69689499499950
 6 -0.96214785828583 -3.39008658925893  1.40731431943194
 6  0.21326642714271 -3.85830967166717  0.50319851455146
 8  0.48063812811281 -3.50270758435844 -0.56545277947795
 8  1.06019286498650 -4.70573019031903  1.24038864616462
 7 -4.95561637793779  2.58637801470147  1.49466969866987
 6 -4.03021511131113  2.44207162886289  2.48065866916692
 6 -3.83392289598960  3.66677517971797  3.20789134533453
 6 -4.63875442814282  4.59578110641064  2.65662493379338
 6 -5.26651275547555  3.99459755495550  1.50846693899390
 6 -2.82044740784078  3.79594697049705  4.31050523992399
 6 -4.79395592619262  6.04758217871787  3.05349485428543
 8 -4.08112816081608  6.50141802980298  3.96491039093909
 7 -6.83076687658766  2.66692658845885 -0.82798445474547
 6 -6.87315002980298  3.93753337053705 -0.51716340504050
 6 -7.87187237363736  4.57630435523552 -1.30839494899490
 6 -8.41023047634763  3.71551848174817 -2.10915986038604
 6 -7.74287317781778  2.44665067386739 -1.78940488698870
 6 -8.25916890779078  5.96987689708971 -1.29916942574257
 6 -9.42792715601560  3.71760215841584 -3.17555218801880
 6 -8.90972242594260  4.04116226242624 -4.65220162416242
 7 -6.39934835383538 -0.09262428012801 -1.12974806680668
 6 -7.33899342894289 -0.00125619421942 -2.10571478217822
 6 -7.58951645884589 -1.31530323392339 -2.59497201980198
 6 -6.72736228502850 -2.22874244604460 -1.96029219491949
 6 -5.99214763016302 -1.35310887598760 -1.14308043844384
 6 -8.59781523932393 -1.66443656965697 -3.63782067826783
 6 -6.29709337643764 -3.64106969086909 -1.86552010711071
 8 -6.71266566206621 -4.62405010341034 -2.40896716181618
 6 -5.05215377747775 -3.51492954555456 -0.89202152195219
 6 -5.28314579197920 -4.73296873797380  0.10753442524252
 8 -5.73175894749475 -4.48571757985799  1.25960232363236
 8 -5.01553125132513 -5.83089428582858 -0.47886103070307
 6 -5.39705726992699 -6.97790964426443  0.42802463226323
 6  2.33586455965597 -4.95706682688269  0.55705966036604
 6  3.38603313831383 -3.91231139203920  0.92445034483448
 6  4.07042643284328 -3.16991986208621  0.07120075507551
 6  3.68588292719272 -2.95434037533753 -1.43733323782378
 6  5.23523994979498 -2.31703675127513  0.50984478327833
 6  6.58219309060906 -2.63480640584058 -0.07162569516952
 6  7.69399472307231 -1.81230058555856  0.55198088858886
 6  9.06536735803580 -2.07443227682768 -0.10355813831383
 6  9.60081646334634 -3.37213785418542  0.14524106640664
 6  10.01990256935694 -0.91574181158116  0.31837435293529
 6  11.43627092949295 -0.92854246114611 -0.26211497769777
 6  12.30638832743274  0.24889951745175  0.31992884048405
 6  13.59740219601960  0.33654852475248 -0.52409717291729
 6  14.45766406540654 -0.76533593619362 -0.05999014991499
 6  14.19585552515252  1.80584675627563 -0.19741899669967
 6  15.59168335873587  2.02800082828283 -0.98828382338234
 6  16.19699228362836  3.41977673047305 -0.57330794399440
 6  17.41541679077908  3.89202704430443 -1.34746868206821
 6  17.20319290899090  4.03733862556256 -2.86767899209921
 6  18.08192759885988  5.17703296859686 -0.80205966486649
 1 -2.66400212301230  1.01180545594559  3.71481194959496
 1 -6.30079805860586  5.64320970137014  0.67342633433343
 1 -8.84451485868587  1.23302360526053 -3.18881436023602
 1 -3.76967803260326 -3.23605892129213  1.92123018381838
 1 -1.93057018091809 -1.11479914151415  2.91206248234823
 1 -2.96036581568157 -2.68568172937294  4.27166071007101
 1 -3.09105989868987 -1.08914881928193  4.85411744154416
 1 -4.56981949364937 -1.78397747864786  3.98962291279128
 1 -2.50692600630063 -2.94918443574357 -0.16104672847285
 1 -1.59427726012601 -1.57144626092609  0.48662678427843
 1 -0.65512094559456 -2.68756005160516  2.36533075177518
 1 -1.34311903350335 -4.45882301350135  2.03950574857486
 1 -1.87680779457946  3.79923944834483  3.73757966766677
 1 -2.73840483058306  4.67278448444844  4.75342159985999
 1 -2.78697169216922  2.93101409890989  5.12264727072707
 1 -5.44453751765176  6.66979117351735  2.56380170157016
 1 -9.99233836733673  2.89668032513251 -3.21267451915191
 1 -10.02335313321332  4.60983482758276 -2.87634792549255
 1 -9.75498529832983  4.18952736673667 -5.17858306060606
 1 -8.35837534693469  5.00643038843884 -4.74867482248225
 1 -8.24990483948395  3.38666802560256 -4.93322324712471
 1 -8.40488807840784 -1.16472701560156 -4.46743774207421
 1 -8.41088207120712 -2.73942734783478 -4.08131076807681
 1 -9.67985806530653 -1.69594641804180 -3.37758466516652
 1 -4.09250660806081 -3.54193902050205 -1.54700798769877
 1  2.52926405940594 -5.94433237623762  0.98080403730373
 1  2.40666140954095 -4.92032900900090 -0.62412586218622
 1  3.70398252055205 -3.92232151395140  1.85319032663266
 1  2.59976496319632 -3.37322294339434 -1.72074461546155
 1  3.65914052735274 -1.81707526682668 -1.84898736923692
 1  4.52031420542054 -3.36612034123412 -1.98194712061206
 1  5.18398843974397 -1.24599102310231  0.42525440894089
 1  5.22566109340934 -2.35892752515252  1.48093297359736
 1  6.81136866356636 -3.66080927302730  0.08654653865386
 1  6.56326648704870 -2.32034964396440 -1.10959155465547
 1  7.47539647094710 -0.70758408350835  0.42433967946795
 1  7.78244034693469 -1.96472305540554  1.61298568386839
 1  8.80811492079208 -1.88908718391839 -1.17951128922892
 1  9.19194371307131 -4.41044981638164 -0.10495428782878
 1  10.65825516631663 -3.27446164826483 -0.50180029352935
 1  9.88176723812381 -3.66133722522252  1.24421486418642
 1  9.49725887648765  0.03441916811681  0.06832219601960
 1  10.06373647114711 -0.86913344724472  1.53476301630163
 1  12.03758890019002 -1.76288632053205 -0.24358873207321
 1  11.32293838053806 -0.61853475837584 -1.60069140274027
 1  11.62983401690169  1.26377080628063  0.21981242604260
 1  12.42175699899990  0.24800599199920  1.38496677687769
 1  13.38593539423942  0.48055248754875 -1.56200843954395
 1  14.58400773907391 -0.58136634933493  1.14522020202020
 1  14.14709028002800 -1.84492350865087 -0.38383470497050
 1  15.24008499689969 -0.81210440864086 -0.73150004250425
 1  13.65777397159716  2.80823544264426 -0.24219600730073
 1  14.68211491179118  1.98944923412341  0.83864107800780
 1  16.47349900570057  1.23709232193219 -0.94300079077908
 1  15.22971855525553  2.18626253905391 -2.07382876257626
 1  15.30954235883588  4.15621099909991 -0.81120311841184
 1  16.30449321942194  3.35520216161616  0.51784168456846
 1  18.20612429382938  3.02320381158116 -1.14249332893289
 1  16.48985970637063  4.73239976887689 -3.24558691849185
 1  18.13795971947195  4.20209972327233 -3.40087469256926
 1  16.81890209040904  3.11784285428543 -3.43876191079108
 1  18.39215526272627  5.21471268876888  0.22205386958696
 1  19.02507002930293  5.26712086428643 -1.40635755015502
 1  17.40026157705771  5.96628613171317 -1.13562762406241
 1 -5.13673897529753 -7.78502793589359 -0.14092763046305
 1 -6.50197462776278 -6.92803989058906  0.74116762426243
 1 -4.83127129572957 -7.03012458805881  1.41180563716372
 8 -7.99381697329733  6.76186268706871 -0.34328211221122
 1 -8.84446274337434  6.32927857275728 -2.12848853165316

