%nproc=4
%Mem=4GB
# td=(NStates=1) iop(3/107=0140000000,3/108=0140000000) iop(3/107=0140000000,3/108=0140000000) CAM-B3LYP/6-31G(d,p) 

TD

0 1
12 -5.72345385198520  1.22295717001700  0.22367097229723
 6 -4.95953634083408 -2.04799326262626 -0.34340120692069
 6 -3.50561935103510  1.15751603640364  2.86098147144714
 6 -6.21581037673767  4.52801606580658  0.66601681048105
 6 -8.04042981008101  1.21569241994199 -2.33313098659866
 7 -4.35641989528953 -0.24301249304930  1.07290862966297
 6 -4.23980750825083 -1.61747544914491  0.66445879547955
 6 -3.18573169766977 -2.24676797959796  1.46155051875188
 6 -2.94828799979998 -1.23512640354035  2.61478803490349
 6 -3.61452888028803 -0.03096572427243  2.17878246344634
 6 -3.49489252865287 -1.75021846324633  4.01702440184018
 6 -1.97337253045305 -2.61823923322332  0.61513681918192
 6 -0.97909955345535 -3.51325890649065  1.38085167316732
 6  0.20615571607161 -3.90154399509951  0.62553074777478
 8  0.44022408670867 -3.48566588018802 -0.49634586878688
 8  1.08637548324833 -4.67098671597160  1.27779238653865
 7 -4.99654047034703  2.64332370927093  1.46677690939094
 6 -4.02337442724272  2.46515393709371  2.45452605590559
 6 -3.82719222292229  3.69933843604360  3.10027058325833
 6 -4.52958351105111  4.61834336263626  2.54446371767177
 6 -5.29402550675067  3.97260535573557  1.56581267356736
 6 -2.90559592269227  3.81771914771477  4.33640783018302
 6 -4.60086661726173  6.05130255075508  2.85951545634564
 8 -3.89433948194819  6.57187507550755  3.69905380528053
 7 -6.97963176307631  2.62042193799380 -0.62730438673867
 6 -6.99385210001000  4.02469208640864 -0.36579826852685
 6 -7.94424961136114  4.61304802960296 -1.11976608610861
 6 -8.47091654495449  3.65109203910391 -2.05992493689369
 6 -7.81725061556156  2.41039704850485 -1.62918886538654
 6 -8.39686267716772  6.02271218061806 -1.09401891069107
 6 -9.48303266656666  3.76615701390139 -3.12188682148215
 6 -8.95986744044404  3.87609575577558 -4.60336674067407
 7 -6.44402282128213 -0.13673869156916 -1.05019011101110
 6 -7.44231376097610 -0.05711177977798 -2.00519473017302
 6 -7.63912141934193 -1.41956365996600 -2.66001852445245
 6 -6.66872642144214 -2.22075164696470 -2.06171233693369
 6 -5.97943635903590 -1.37351091619162 -1.05176130653065
 6 -8.57454291209121 -1.67885801180118 -3.86684358055806
 6 -6.20057372447245 -3.58590417431743 -2.05479903500350
 8 -6.46590098559856 -4.54262196059606 -2.68478474357436
 6 -4.97460602270227 -3.48107616021602 -0.92255457525753
 6 -5.12953043044304 -4.55642108320832  0.06696036783678
 8 -5.59283505510551 -4.48912792089209  1.16113247664766
 8 -4.88107780598060 -5.79790098649865 -0.51282442704270
 6 -5.16124368856886 -6.94881673497350  0.35284711451145
 6  2.32944391759176 -4.98049917011701  0.73962791719172
 6  3.38329286428643 -4.03237339823982  0.93623152295230
 6  4.07632702290229 -3.19877274737474  0.23905754075408
 6  3.57649198809881 -2.90404534583458 -1.34480398489849
 6  5.20808723452345 -2.40292534013401  0.67124092289229
 6  6.58287315861586 -2.84919784498450 -0.01011954455446
 6  7.65684100770077 -1.85504485998600  0.48285397589759
 6  9.04133495479548 -2.02769760336034 -0.18264604710471
 6  9.66491287298730 -3.38866950735073  0.01469801210121
 6  10.02595317441744 -0.97584782218222  0.32652516801680
 6  11.33649095149515 -0.82453206010601 -0.28862762896290
 6  12.28727641624162  0.20121474897490  0.27607445504550
 6  13.61855431123112  0.34254912481248 -0.49578434163416
 6  14.54354265326533 -0.71399080168017 -0.18855300620062
 6  14.28620456005600  1.73240941254125 -0.13034228902890
 6  15.64802899329933  1.96834486268627 -0.84942993799380
 6  16.13414599899990  3.43921867466747 -0.66423703690369
 6  17.38673392249225  3.90097793939394 -1.34412834803480
 6  17.13878646834683  3.82764765646565 -2.81361358555856
 6  17.76833623972397  5.29204446974698 -0.84235369426943
 1 -2.86197191999200  1.24066834223422  3.70218068646865
 1 -6.51337931673167  5.55924130453045  0.79850884258426
 1 -8.75536594379438  1.08286858975898 -2.97658313711371
 1 -3.57044810961096 -3.16417173257326  1.90289835063506
 1 -1.79003612751275 -0.63814147574757  2.90007128322832
 1 -2.89750953005300 -2.54778793999400  4.54710825482548
 1 -3.62019281198120 -0.75721562596260  4.75085711551155
 1 -4.53435594729473 -2.11841092199220  3.86845079557956
 1 -2.41827714141414 -3.09674919221922 -0.16393701750175
 1 -1.50773860626063 -1.55121423772377  0.20226834843484
 1 -0.82945837933793 -2.86282757835784  2.28668288698870
 1 -1.48491321292129 -4.36065319651965  1.60592239023902
 1 -2.05131524532453  3.51894141854185  3.90867677737774
 1 -2.87877886798680  4.90567777377738  4.43286954465447
 1 -3.03017601260126  3.37142814031403  5.33115812181218
 1 -5.42180524442444  6.46152034643464  2.22237755915592
 1 -10.16238537203720  2.81383204030403 -3.20249350105011
 1 -10.09587038493849  4.65386923102310 -2.83766405710571
 1 -9.88995879567957  3.88115652965297 -5.44034923722372
 1 -8.46101561096110  4.91435118051805 -4.48905886088609
 1 -8.14518436743674  3.02658201700170 -4.98849877467747
 1 -8.27973556315631 -0.98587913081308 -4.64928592689269
 1 -8.20021100410041 -2.79172257735774 -4.28273091009101
 1 -9.57890797029703 -1.57932475587559 -3.50858776547655
 1 -4.02963032043204 -3.87359218581858 -1.27617090399040
 1  2.41925305830583 -6.03604154715472  1.13474943184318
 1  2.20203094649465 -5.10812778887889 -0.27912136173617
 1  3.64031615391539 -4.03720300210021  2.02824783238324
 1  2.57907289398940 -3.32680830193019 -1.32903544454445
 1  3.43263787708771 -1.86753031233123 -1.56175864636464
 1  4.47624979897990 -3.29711344054405 -1.94830375627563
 1  4.88999904080408 -1.40744716871687  0.70000188368837
 1  5.48631715901590 -2.50677230963096  1.85560044034403
 1  6.83020054675468 -3.92321551365136  0.40555843984398
 1  6.21809196959696 -2.57907551655166 -1.14393498899890
 1  7.50172910421042 -0.76288961406141  0.26322356785679
 1  7.78715081798180 -2.05087167026703  1.65333971927193
 1  8.92345645494549 -1.89472774797480 -1.32497583568357
 1  8.67889240794079 -4.15683445484548  0.06722292989299
 1  10.41979131993199 -3.93414761686169 -1.07199731323132
 1  10.02364142554255 -3.41226231773177  0.97792823552355
 1  9.71421057165717  0.23359908610861  0.36196155995600
 1  10.29351944944495 -1.13214974887489  1.46386592659266
 1  11.79225436673667 -1.85888592049205 -0.27680205340534
 1  11.18145423212321 -0.74061696659666 -1.35361669526953
 1  11.90786181968197  1.21675610481048  0.44860530533053
 1  12.63727855115511  0.03184437583758  1.35962424262426
 1  13.40856765746575  0.33038747104711 -1.63827606630663
 1  14.98855819411941 -0.63433164586459  0.88272395239524
 1  14.08422399339934 -1.67907692399240 -0.43607992949295
 1  15.39488047644764 -0.67896109430943 -0.94426131863186
 1  13.68897709190919  2.41022564166417 -0.42665445314531
 1  14.48637533783378  1.63237352655266  0.83745095899590
 1  16.37770942674267  1.19647826052605 -0.40330682138214
 1  15.37531311471147  1.81000491329133 -1.94766614631463
 1  15.40408181278128  4.18900427842784 -0.86550854895490
 1  16.25203797389739  3.55385202660266  0.48593849424943
 1  17.94752843424342  3.02381387258726 -0.94804388398840
 1  16.32205292569257  4.56441297019702 -2.93740610041004
 1  17.87593351685168  4.18831834513451 -3.61336594169417
 1  16.89524972517252  2.80298136813681 -3.34721275587559
 1  17.68776482368237  5.41498271577158  0.23348501270127
 1  18.62899042134213  5.57512166436644 -1.24158107250725
 1  16.89331088198820  6.00532003510351 -1.43996805810581
 1 -4.78311361276128 -7.79984941804180 -0.39782332003200
 1 -6.26683111341134 -7.21688877547755  0.49238274577458
 1 -4.65943411201120 -7.15698727432743  1.25848030463046
 8 -7.89956754835484  6.86906340714071 -0.35166295029503
 1 -9.22750104720472  6.34266991189119 -1.80142582538254

