%nproc=4
%Mem=2GB
# td=(NStates=1) iop(3/107=0140000000,3/108=0140000000) iop(3/107=0140000000,3/108=0140000000) CAM-B3LYP/6-31G(d,p) 

TD

0 1
12 -6.85905847794780  0.69981912601260  0.06423404290429
 6 -4.49895700220022 -1.89494791659166  0.14766504350435
 6 -4.13498531393139  2.82332396549655  0.72481536313631
 6 -9.03615632033203  3.05433945804580 -0.09872937463746
 6 -9.32241033863386 -1.77958098769877 -0.48113817251725
 7 -4.64084915681568  0.43547294499450  0.41120015211521
 6 -4.06163342894290 -0.77079678647865  0.55830638603860
 6 -2.51794521312131 -0.43412517171717  0.90215227752775
 6 -2.60652061786179  1.07135728452845  1.23050521302130
 6 -3.92631889478948  1.37255734093409  0.86693146784679
 6 -2.25146143184318  1.46431822772277  2.72377694049405
 6 -1.62134088248825 -0.75908847224722 -0.34459313301330
 6 -0.06407452575258 -1.03204491109111  0.23183225672567
 6  0.85332641184118 -1.21239847674767 -0.93884205800580
 8  0.71849191729173 -0.58054066656666 -1.98645963616362
 8  1.96168645524552 -1.92884318291829 -0.44410933343334
 7 -6.72182392459246  2.56758712871287  0.49266301420142
 6 -5.46531709260926  3.38342698589859  0.53491978817882
 6 -5.95172938813881  4.70610029482948  0.53208807740774
 6 -7.28549926332633  4.76531262176218  0.38616519981998
 6 -7.82131383528353  3.52348115651565  0.27474230563056
 6 -5.14804972527253  5.85674310481048  1.03498116611661
 6 -8.15509707100710  6.03455037513751  0.33531305500550
 8 -7.61509542574257  7.19547116371637  0.54667252405241
 7 -8.76769032253225  0.64261512071207 -0.25060770987099
 6 -9.48627229962996  1.82606734203420 -0.35522657495750
 6 -10.86301293159316  1.46337620872087 -0.71018679987999
 6 -10.97024138163816  0.05784668906891 -0.77679853535354
 6 -9.65202686598660 -0.43982214541454 -0.39232130883088
 6 -11.93153992929293  2.41209740284028 -0.75375002580258
 6 -12.05910903140314 -0.64619818211821 -1.22526065976598
 6 -12.14448131023102 -0.76763892909291 -2.76012880758076
 7 -7.07467395029503 -1.43543610491049  0.04347170267027
 6 -8.03232589418942 -2.34453445014501 -0.22619581758176
 6 -7.58771635673567 -3.74421174357436 -0.46638764886489
 6 -6.07468308950895 -3.56854601550155 -0.31144940554055
 6 -5.93387967666767 -2.18731754625463  0.07005318961896
 6 -8.37424594809481 -4.80752813061306 -0.71673448934893
 6 -4.75967217171717 -4.39955575367537 -0.03176515081508
 8 -4.69784153285329 -5.49831036933693 -0.18705819921992
 6 -3.81534525992599 -3.23833439263926  0.37287193439344
 6 -3.36653016391639 -3.62993916941694  1.77692740574057
 8 -3.90528576867687 -3.90989772457246  2.80884955475548
 8 -1.86950862576258 -3.71548785408541  1.70268020722072
 6 -1.31167969006901 -4.05428051815182  2.90844526972697
 6  3.01752364516452 -2.31485666256626 -1.37074831893189
 6  4.07639140654065 -1.35511251235123 -1.02934846714672
 6  5.20342109750975 -1.20105697709771 -1.62413861546155
 6  5.29077306110611 -1.76957009170917 -2.97162414461446
 6  6.16703052765277 -0.12606025892589 -1.43727028552855
 6  7.38578727272727 -0.79384516661666 -0.75033177047705
 6  8.44460702100210  0.24504013861386 -0.53135161566157
 6  9.71497458685869 -0.40684760506051  0.04057575187519
 6  9.46839435573557 -1.08175699039904  1.45878024682468
 6  10.79069139913991  0.71517637183718  0.15960079847985
 6  12.24644991549155  0.10126143334333  0.59243755495550
 6  13.41743328592859  1.00719799449945  0.51968486688669
 6  14.79222555775578  0.28905218331833  0.63008767086709
 6  14.96580156825683 -0.20333261376138  2.02758268226823
 6  15.99852948134814  1.35279018101810  0.10037324262426
 6  17.42437191529153  0.82327755215522  0.01393451955196
 6  18.37040658805881  1.81879907110711 -0.38328847564757
 6  19.87658986008601  1.09382787758776 -0.51361144484448
 6  19.92340214151415 -0.04010858055806 -1.69091488268827
 6  20.84906207510751  2.21781319931993 -0.59403449934994
 1 -3.59101974027403  3.58179943094310  1.13355275697570
 1 -9.85982996549655  3.89168825392539 -0.10173380728073
 1 -10.39681217281728 -2.68189858915892 -0.51450427632763
 1 -2.26726924372437 -1.08419603740374  1.60652070037004
 1 -1.81955129372937  1.59710018621862  0.96121257465747
 1 -1.38707009070907  1.38717703210321  3.00693140424042
 1 -2.51364953885389  2.55592416881688  2.93557967576758
 1 -2.88349068156816  0.66356424172417  3.27463333243324
 1 -1.98280730103010 -1.48838011101110 -0.96331411821182
 1 -1.39830499949995  0.13756228332833 -0.86206599739974
 1  0.35904390269027  0.10612917961796  0.72018788398840
 1  0.22440872107211 -1.85532186598660  0.96473670577058
 1 -3.77863239363936  6.34534236213621  0.57507246494649
 1 -5.67350763136314  7.03517619351935  1.34452135823582
 1 -4.60558158635864  5.51626058705871  1.83601137343734
 1 -8.98706172027203  5.69841495069507 -0.12514889068907
 1 -12.08340789438944 -1.87877874537454 -1.30040446764676
 1 -12.88006422142214 -0.30805440564056 -0.51060869726973
 1 -12.84115193829383 -1.93362547794780 -2.88562567966797
 1 -12.52599956375638  0.05792321382138 -3.22808497799780
 1 -10.90002682708271 -1.06925024202420 -3.12571917931793
 1 -8.80698988228823 -4.80342689828983 -1.70504273227323
 1 -7.83920913551355 -5.72850286288629 -0.83049270117012
 1 -9.00917819781978 -4.99068102930293  0.13851846134613
 1 -3.23951353275328 -3.12802652755276 -0.36325463226323
 1  3.24844646004600 -3.47972524632463 -1.02429814691469
 1  2.72708699749975 -2.23814972997300 -2.44527476277628
 1  3.65051237893789 -0.90100284868487 -0.23981037943794
 1  4.36214927192719 -1.49156262876288 -3.59000911591159
 1  6.52083566196620 -1.54231290669067 -3.48890011391139
 1  5.16183001040104 -3.27709032333233 -2.78301248504850
 1  6.63717413931393  0.27072240964096 -1.98918153535354
 1  5.79577468686869  0.63964951275128 -0.88606286968697
 1  6.96943812271227 -1.28637683478348 -0.01055933433343
 1  7.72397779617962 -1.58630742104210 -1.45411488738874
 1  8.42385451685169  0.65725632043204 -1.59157194249425
 1  8.07670616871687  1.10933612181218  0.35531123952395
 1  10.04380682778278 -1.27002444614461 -0.61606876447645
 1  8.93361560586059 -1.99109792549255  1.21262962376238
 1  10.49440550995100 -1.39757363856386  2.04557644904490
 1  9.02291550315032 -0.11518274067407  1.86792809790979
 1  10.90841447924792  1.18574133403340 -1.10522769436944
 1  10.45945569216922  1.21894076967697  0.92801668196820
 1  12.09142668486849 -0.28257069656966  1.69087277057706
 1  12.30220237423742 -0.57215543614362 -0.22784578207821
 1  13.47091196119612  1.84508405340534 -0.27527643224322
 1  13.26872891769177  1.84894914621462  1.19563535293529
 1  14.72959438523852 -0.68844636063606  0.01916372517252
 1  14.56453635353535  0.54198459395940  2.71957473047305
 1  14.51900917441744 -1.12677034893489  2.51807930603060
 1  15.83177021012101 -0.57058064116412  2.13938041574157
 1  15.57619875477548  1.69197919131913 -0.90069004370437
 1  16.11153518611861  1.97608714421442  0.56338466166617
 1  17.91496281138114  0.13287645824582  0.97125731243124
 1  17.35758328252825  0.12425059425943 -0.83556493389339
 1  18.18117312441244  2.26557310511051 -1.47281026932693
 1  18.42793278937894  2.73486739363936  0.24299096959696
 1  19.92244480568057  0.44189703590359  0.63360671147115
 1  19.83535185318532  0.34094914451445 -2.76120824602460
 1  20.80407469746975 -0.52873467526753 -2.00922505590559
 1  19.23192591959196 -0.72177989638964 -1.37568564326433
 1  20.77902468106810  2.96394597369737  0.22165291889189
 1  22.10115785608561  1.72992957565757 -0.51601431643164
 1  20.91048770167017  2.97955544274427 -1.61762655895589
 1 -0.48247387248725 -4.06122887228723  2.45295364336434
 1 -1.61440112111211 -4.61084835853585  3.60521115771577
 1 -1.26429044234423 -3.14592306940694  3.38252240544054
 8 -11.63427180148015  3.68042284148415 -0.82159397309731
 1 -13.18150866236624  2.08255949604961 -0.62842344734473

