%nproc=4
%Mem=4GB
# td=(NStates=1) iop(3/107=0140000000,3/108=0140000000) iop(3/107=0140000000,3/108=0140000000) CAM-B3LYP/6-31G(d,p) 

TD

0 1
12 -5.55415692229223  1.21486636093609  0.15815442064206
 6 -4.98562895009501 -2.11427989128913 -0.25914278107811
 6 -3.46505529462946  1.06965725052505  2.81435680898090
 6 -6.00796959265927  4.55360862506251  0.67393760256026
 6 -7.96370213731373  1.18600945164516 -2.43395106860686
 7 -4.23462771607161 -0.28318651045105  0.97304864366437
 6 -4.15300882838284 -1.64878858045805  0.68078042764276
 6 -3.20681380588059 -2.31941524432443  1.52297666136614
 6 -2.94779795079508 -1.32966585748575  2.68130468656866
 6 -3.52982040944094 -0.05438806650665  2.21906649184919
 6 -3.60064310371037 -1.84438788018802  4.04704740414041
 6 -1.97473266646665 -2.60842825212521  0.78190349584959
 6 -0.97788943244324 -3.46079365996600  1.52750633863386
 6  0.17784288478848 -3.93669751045104  0.63078127282728
 8  0.37219728402840 -3.52977029062906 -0.54181041524152
 8  0.95211205690569 -4.70510012731273  1.29164377167717
 7 -4.81278209450945  2.63844322122212  1.46900713241324
 6 -3.92458454825483  2.42248967066707  2.51239184248425
 6 -3.48634813851385  3.66579508170817  3.08216877307731
 6 -4.34655520822082  4.58118964726473  2.54701397269727
 6 -5.12884898909891  3.94950304550455  1.56359245154515
 6 -2.51069643274327  3.70825820162016  4.22105629502950
 6 -4.44385091569157  6.01043846434643  2.83652315711571
 8 -3.74861490949095  6.49560744874487  3.76390028992899
 7 -6.85103890379038  2.57679757555756 -0.78015967226723
 6 -6.86177889268927  3.94910452765277 -0.36773846254625
 6 -7.82776796319632  4.66848357315732 -1.24660877037704
 6 -8.32192164546455  3.62527945784578 -2.09129807420742
 6 -7.69625851635164  2.36456246504650 -1.75709165566557
 6 -8.16103909480948  6.00401031043104 -1.17352686148615
 6 -9.41660602390239  3.78882928112811 -3.12170680348035
 6 -8.88197965166517  4.09083722992299 -4.50994739873987
 7 -6.37897631663166 -0.14525954365437 -1.10383547554755
 6 -7.33312284188419 -0.03822989158916 -2.07934214491449
 6 -7.54183169036904 -1.34324602820282 -2.68715123772377
 6 -6.67427697649765 -2.07507707950795 -2.06039220492049
 6 -5.96018443384338 -1.47774133923392 -1.04626075647565
 6 -8.62671812961296 -1.73009313531353 -3.69005590179018
 6 -6.23490715781578 -3.57751333523352 -2.01709526462646
 8 -6.65670006550655 -4.58324602300230 -2.51209747484749
 6 -5.07407596969697 -3.55518357095710 -0.94692701250125
 6 -5.36284376177618 -4.67258269936994  0.05866953875388
 8 -5.71843761536154 -4.52345135323532  1.18430479387939
 8 -5.09821952015202 -5.85060625702570 -0.51678482308231
 6 -5.60996856105611 -7.08792064536454  0.40346217601760
 6  2.27894886808681 -5.11023214341434  0.64062801720172
 6  3.38917345234524 -4.17354751565157  0.82617051685169
 6  3.98004739493949 -3.23227609770977  0.10799443444344
 6  3.65130946984698 -3.09700464176418 -1.36730623512351
 6  5.09825625142514 -2.34481952955296  0.64511831063106
 6  6.53998887018702 -2.64702762796280  0.05939740714071
 6  7.56591191479148 -1.74650400590059  0.48338402890289
 6  8.94084490579058 -1.85148998259826 -0.11785956845685
 6  9.46076245794580 -3.31612225262526  0.13937047934793
 6  9.85764634373437 -0.81573181058106  0.32728524402440
 6  11.21370867326733 -0.75296490339034 -0.37577634383438
 6  12.13072076067607  0.33137776527653  0.13017986558656
 6  13.42798525432543  0.59164403430343 -0.49180394359436
 6  14.40923922292229 -0.60889029162916 -0.18483263416342
 6  14.14333027262726  1.92241841344134 -0.08549780458046
 6  15.36721091149115  2.25289331753175 -0.82206720172017
 6  15.90373295769577  3.55616036883688 -0.58833944714471
 6  17.29246449554956  3.81511935353535 -1.39181311651165
 6  17.03784637433743  4.02156704840484 -2.82824504870487
 6  17.93527293339334  5.05460072537254 -0.73173263216322
 1 -2.88742446524653  1.13639791519152  3.76063653205321
 1 -5.93562154095410  5.59557493789379  0.77459645134513
 1 -8.89303971117112  0.99678998189819 -3.07087256605661
 1 -3.83652471727173 -3.32602791819182  1.86447450825082
 1 -1.98316544044404 -1.01467912951295  2.99508078417842
 1 -2.91306108520852 -2.65942910411041  4.32847639163916
 1 -3.57007780048005 -0.95182508690869  4.65289731953195
 1 -4.55909842154215 -2.10345942684268  3.89526347684768
 1 -2.21524683838384 -3.22300181748175 -0.03470409420942
 1 -1.33234106650665 -1.73826294259426  0.35220334193419
 1 -0.52536797029703 -3.06895819141914  2.44005822452245
 1 -1.48083280488049 -4.47850498169817  1.67317911591159
 1 -1.55302541634163  3.33320284468447  4.02656856655666
 1 -2.34073506360636  4.64757196319632  4.38678493619362
 1 -2.82241523652365  3.33708470597060  5.21203620962096
 1 -5.19790285418542  6.54832902730273  2.18498381978198
 1 -9.94504363786378  2.79877053415342 -3.45522877457746
 1 -10.19470026792679  4.52485632973297 -2.73164345504550
 1 -9.75087488728873  3.95608402240224 -5.15078028032803
 1 -8.59109861926193  5.09126887228723 -4.85353530853085
 1 -8.05599544854485  3.30622998179818 -4.79597952275227
 1 -8.27655524512451 -1.41658220112011 -4.65172617091709
 1 -8.59158014101410 -2.93022642774277 -3.64547718471847
 1 -9.69528960846085 -1.53065988938894 -3.48181508820882
 1 -3.95995335273527 -3.77794262086209 -1.23300658755876
 1  2.61388252125213 -5.94654259725973  1.05137109400940
 1  1.94544528792879 -5.31351832793279 -0.42468591819182
 1  3.74925704800480 -4.24678396019602  1.95579058665867
 1  2.51967695439544 -3.19535515661566 -1.55109765076508
 1  3.92781739503950 -2.18233179247925 -1.62710518101810
 1  4.38522069606961 -3.68075180438044 -1.94595352125213
 1  4.96159620052005 -1.44582100610061  0.33498538203820
 1  5.34897342464246 -2.29727135953595  1.80821570187019
 1  6.69981750845085 -3.80414360646065  0.13855173917392
 1  6.38304846524652 -2.46805441444144 -0.95626622212221
 1  7.08906783808381 -0.74815814091409  0.52340958645865
 1  7.57492959585959 -1.86246282938294  1.51695608090809
 1  8.97659176847685 -2.00966924212421 -1.09374271237124
 1  8.75675019371937 -4.21053982538254  0.05246145374537
 1  10.24648398919892 -3.52886708880888 -0.32245235873587
 1  9.84838389978998 -3.24564565606561  1.07734817751775
 1  9.26806595719572  0.22659838603860  0.06361172497250
 1  9.77215731323132 -0.59634616851685  1.24986452645265
 1  11.74333947524752 -1.47990802270227 -0.11523589678968
 1  11.07313340004000 -0.66778968386839 -1.57856919051905
 1  11.54207524102410  1.28036246544654  0.06597704250425
 1  12.23835865916591  0.24427561896190  1.28271655185519
 1  13.55334213491349  0.63495792809281 -1.61314355305531
 1  14.85043438173817 -0.72323053575358  0.87448312831283
 1  13.94672024302430 -1.63146216251625 -0.44670099159916
 1  15.26191718011801 -0.59641283948395 -0.84902179467947
 1  13.17081527572757  2.65524014311431 -0.15775756345635
 1  14.21591829212921  2.09746003520352  0.97373458735874
 1  16.00603225902590  1.52564117681768 -0.59846633733373
 1  15.14352993639364  1.93553746654666 -1.92529390909091
 1  15.03546495109511  4.39575495349535 -0.97060905900590
 1  16.24036680678068  3.84101074247425  0.41872177257726
 1  18.00633431483148  3.06586807800780 -1.27365644524452
 1  16.48487920832083  5.03292982188219 -2.83661602140214
 1  18.03001892539254  4.17798731203120 -3.17827243234323
 1  16.55773597379738  3.16850792079208 -3.39996803140314
 1  17.91690773797379  4.90278149564957  0.40115177937794
 1  18.93306082838284  5.49282343454345 -1.05107202160216
 1  17.35077662856285  5.93991349444944 -0.98017207850785
 1 -5.32050735213521 -8.02542197529753 -0.13388692639264
 1 -6.60241467176718 -7.03826091269127  0.65539904740474
 1 -5.03451161976198 -7.05962753835384  1.35663011961196
 8 -7.66936452805281  6.83114961576158 -0.46711449544954
 1 -9.06986528362836  6.45629127402740 -1.85601128392839

