%nproc=4
%Mem=4GB
# td=(NStates=1) iop(3/107=0140000000,3/108=0140000000) iop(3/107=0140000000,3/108=0140000000) CAM-B3LYP/6-31G(d,p) 

TD

0 1
12 -5.64569607620762  1.20043491779178  0.15811441664166
 6 -5.05785617281728 -2.14068253155316 -0.36533340014001
 6 -3.31633042214221  1.14422470727073  2.70289566286629
 6 -6.21457025272527  4.52570583478348  0.68713892269227
 6 -8.02079784688469  1.15906675737574 -2.40806848034803
 7 -4.24788904220422 -0.30292848464846  1.01008234703470
 6 -4.22292582008201 -1.60009371097110  0.58110045964596
 6 -3.23481660616062 -2.33385668846885  1.48117248094809
 6 -2.88270144114411 -1.32192508340834  2.56437299339934
 6 -3.48056548394840 -0.07918054575458  2.10928551375138
 6 -3.31918495789579 -1.70484392579258  3.90735343474347
 6 -1.97144233743374 -2.70579798909891  0.64982028752875
 6 -1.00422206570657 -3.61657923852385  1.46579016701670
 6  0.29584468496850 -3.90651449214921  0.64069226392639
 8  0.58881894619462 -3.39946726032603 -0.43930016421642
 8  1.09309615531553 -4.79627924522452  1.34303891119112
 7 -4.93251406770677  2.59957933483348  1.54205443714371
 6 -4.06410850065007  2.34901232293229  2.45598620192019
 6 -3.79661916561656  3.55567406960696  3.26579713591359
 6 -4.51557210991099  4.58304983328333  2.57719699099910
 6 -5.32761886608661  3.90378847404740  1.56796288858886
 6 -2.78329369246925  3.83514088988899  4.28955314471447
 6 -4.76468299889989  5.94917233773377  3.02087159195920
 8 -4.21569161716172  6.57773566156616  3.89772367226723
 7 -6.93083688358836  2.68154805060506 -0.71149280558056
 6 -6.99979269406941  3.93030264746475 -0.33506519521952
 6 -7.87268245464546  4.65971269606961 -1.16202031153115
 6 -8.48165761906191  3.55068199809981 -2.08480742514251
 6 -7.83760265076508  2.40216622542254 -1.70811675817582
 6 -8.40660365126513  6.02317222662266 -1.14026353515352
 6 -9.36736109940994  3.83651404960496 -3.21440607340734
 6 -8.59672112581258  4.09029717591759 -4.60716712071207
 7 -6.36533495249525 -0.12383740144014 -1.12349744174417
 6 -7.34575410501050 -0.05370143874387 -2.11699591029103
 6 -7.63453096029603 -1.34017572117212 -2.65453797639764
 6 -6.60656020482048 -2.18808838063806 -2.13631979767977
 6 -6.04112252765277 -1.43110667576758 -1.16607273767377
 6 -8.60307576537654 -1.58549867586759 -3.75721261746175
 6 -6.18403207030703 -3.57590317421742 -2.02141569666967
 8 -6.65532992849285 -4.52786048444844 -2.66032229732973
 6 -5.06728529062906 -3.54639269186919 -0.92257457725773
 6 -5.34295177257726 -4.62256769786979  0.10113378517852
 8 -5.93329910151015 -4.49382839093909  1.20905726912691
 8 -5.10578027622762 -5.86491768816882 -0.32911605620562
 6 -5.43824138833883 -6.86536839013901  0.65027685748575
 6  2.38380935413541 -5.05937705790579  0.62823677807781
 6  3.39918445344534 -4.07973813471347  1.02704060386039
 6  4.05778516871687 -3.24974784488449  0.15001863686369
 6  3.69182352125213 -3.18115305660566 -1.38780828532853
 6  5.14537096289629 -2.30575562316232  0.57021081988199
 6  6.51388625992599 -2.60973389858986 -0.08742727532753
 6  7.59594491809181 -1.62584193969397  0.54875056555656
 6  9.02328314961496 -1.74947978157816 -0.11244902740274
 6  9.55913229492949 -3.33406404680468 -0.01860531823182
 6  9.98053863296330 -0.82153239063906  0.50264277977798
 6  11.36536383878388 -0.86330593749375 -0.21299006520652
 6  12.28074576317632  0.30801542904290  0.34820166776678
 6  13.64971742754275  0.40664553445345 -0.41673643684368
 6  14.51915021402140 -0.74431383398340 -0.10193434433443
 6  14.27528346794679  1.75572174377438 -0.14791404620462
 6  15.47767195759576  2.16248427662766 -0.96147114211421
 6  16.14354693909391  3.52008676147615 -0.67633824702470
 6  17.40631588068807  3.81480932253225 -1.48438237343734
 6  17.23337592729273  3.85618050975097 -2.92582480668067
 6  18.01853125922592  5.05143040834083 -0.97082654155416
 1 -2.50464618741874  1.13906818221822  3.45362583098310
 1 -6.32192017081708  5.44747012741274  0.82740173187319
 1 -8.74197460466046  1.26751705460546 -3.20340581938194
 1 -3.62976404120412 -3.34473978937894  1.82034009480948
 1 -1.77965508940894 -1.30639830143014  2.63903517961796
 1 -2.85338511761176 -2.78780194139414  3.95710925492549
 1 -3.28699949264926 -0.84978488288829  4.61674370417042
 1 -4.52777528922892 -2.02781186208621  3.97051100160016
 1 -2.24035934963496 -3.09666918421842 -0.17237786158616
 1 -1.18692652505250 -1.86257537383738  0.15167328892889
 1 -0.83492892639264 -3.06157745334533  2.34165838453845
 1 -1.43574829642964 -4.59473660486049  1.61050284828483
 1 -1.81206131993199  3.52153167756776  4.10114602430243
 1 -2.93755474557456  4.85127233323332  4.73445970367037
 1 -3.26444943994399  3.13900489798980  5.21201620762076
 1 -5.58789185308531  6.37284147854785  2.40896621802180
 1 -10.08934806830683  2.91639229632963 -3.43163641534153
 1 -10.04841563946395  4.64324816891689 -3.00701099179918
 1 -9.10359015881588  4.22364077807781 -5.46185138743874
 1 -8.10627013641364  5.10223996939694 -4.30455041004100
 1 -8.10246009500950  3.32523188198820 -4.78564848964896
 1 -8.56158374797480 -0.69703024592459 -4.53072407070707
 1 -8.55316629962996 -2.65654906000600 -4.29323196019602
 1 -9.69099917941794 -1.57674449784978 -3.49464637133713
 1 -4.13074043144314 -3.80274510111011 -1.37342062896290
 1  2.60362149514952 -6.11184912791279  1.02692864976498
 1  2.17003774717472 -5.20062703880388 -0.36615006460646
 1  3.76306842914291 -3.87623690549055  2.05054006160616
 1  2.76331131783178 -3.38369399049905 -1.65733827482748
 1  3.91083569686969 -2.14615817511751 -1.69104157465747
 1  4.53999617361736 -3.71645537473747 -1.89047797369737
 1  4.95253529442944 -1.23526995099510  0.41729361286129
 1  5.11724025132513 -2.35664729712971  1.73241812211221
 1  6.52007953465347 -3.64953814591459 -0.02801491749175
 1  6.36330649104910 -2.21809941894189 -1.11002159765977
 1  7.16092502380238 -0.68562188728873  0.45165241074107
 1  7.77536963986399 -1.69833641674167  1.62179656495650
 1  8.81042515181518 -1.53495177037704 -1.10883422152215
 1  9.00785530423042 -4.28804757615762 -0.28478227062706
 1  10.26567590839084 -3.52733693579358 -0.81897201070107
 1  10.11301036243624 -3.42843393489349  1.15086552925293
 1  9.75791494209421  0.36808253445345  0.37148251205120
 1  10.18832893039304 -1.01332786668667  1.60331987198720
 1  11.89316445774577 -1.89479951185119  0.04312993979398
 1  11.20929701640164 -0.94651755665567 -1.25975730933093
 1  11.69410044354436  1.42737716691669  0.12955340014001
 1  12.47973279657966  0.04836602800280  1.30459874007401
 1  13.48707550825083  0.40818525082508 -1.63514575327533
 1  14.67293663196320 -0.51827003970397  0.96086176617662
 1  13.90516608760876 -1.63461247754775 -0.14768108960896
 1  15.48956994539454 -0.86368956715672 -0.61810870337034
 1  13.62424061826183  2.45276989608961 -0.13253504120412
 1  14.67931463176318  1.97261755095510  1.00376759065907
 1  16.19463111891189  1.24419303200320 -0.96947343804380
 1  15.08356393979398  1.99952386518652 -1.98402978267827
 1  15.46244764936494  4.37609298729873 -0.76420841894189
 1  16.51818458855886  3.55219186058606  0.32401230163016
 1  17.95985966736674  3.12889438063806 -1.00509958955896
 1  16.59247996839684  4.68087461636164 -3.19520187998800
 1  18.02305822932293  4.15839535283528 -3.41588619371937
 1  16.95937613781378  2.80837190719072 -3.22998103270327
 1  18.37134318151815  4.93108432593259 -0.03561189698970
 1  18.81938946124612  5.56254040624062 -1.58921583598360
 1  17.46629818071807  6.03376287938794 -1.05178924022402
 1 -5.38659396079608 -7.68179761286129 -0.16635017271727
 1 -6.34247867816782 -6.70629771637164  1.13485699319932
 1 -4.76438460706071 -6.81614318991899  1.53434789138914
 8 -7.91041863346335  6.84764126492649 -0.36992477647765
 1 -9.17792608970897  6.23954959985999 -1.88943462626263

