%nproc=4
%Mem=4GB
# td=(NStates=1) iop(3/107=0140000000,3/108=0140000000) iop(3/107=0140000000,3/108=0140000000) CAM-B3LYP/6-31G(d,p) 

TD

0 1
12 -5.61424293089309  1.25164003830383  0.19860846604660
 6 -5.02167255445545 -2.10746921022102 -0.40688755555556
 6 -3.38375716481648  1.15090537533753  2.77975334863486
 6 -6.25597439313931  4.50369363356336  0.65689589838984
 6 -8.06737250435044  1.18052890359036 -2.37115478897890
 7 -4.38799305260526 -0.25612380418042  1.12773411221122
 6 -4.27271079857986 -1.59660336193619  0.64786713631363
 6 -3.28178130263026 -2.40495379817982  1.45996035973597
 6 -2.95306847784778 -1.35142803370337  2.54000055615562
 6 -3.65005243264326 -0.10331295899590  2.15465005020502
 6 -3.52087512691269 -1.83159660106011  3.96288898829883
 6 -2.07238243144314 -2.70194760406041  0.63684899039904
 6 -0.94492613611361 -3.49858743934393  1.46644023202320
 6  0.20142524302430 -3.82978681938194  0.63699189388939
 8  0.50305036933693 -3.43810112371237 -0.45772200640064
 8  1.14914175987599 -4.56795641294129  1.43070767806781
 7 -4.87219803610361  2.64141351825183  1.42474270597060
 6 -3.99411150095009  2.39911733343334  2.40406100940094
 6 -3.74833433713371  3.56380488268827  3.15971652785279
 6 -4.48743929662966  4.53517504580458  2.54625389668967
 6 -5.27793389758976  3.90985908110811  1.51449754205421
 6 -2.82304766786679  3.76507388318832  4.31383557295730
 6 -4.66412294289429  5.90819824032403  2.97207671247125
 8 -3.96373642164216  6.50547843584358  3.89184308420842
 7 -6.95964976487649  2.53912380818082 -0.68775043134313
 6 -7.02995571037104  3.84394401160116 -0.36609829852985
 6 -7.95914110051005  4.56871359615962 -1.19015312481248
 6 -8.54748420172017  3.58881581148115 -1.96595553995400
 6 -7.79978886938694  2.37199320812081 -1.69619556605661
 6 -8.34901789268927  5.99921983138314 -1.07254676347635
 6 -9.46654101740174  3.86395679387939 -3.12954758755876
 6 -8.86686814051405  3.99836798299830 -4.56660306430643
 7 -6.39190760976098 -0.11778679637964 -1.16748184018402
 6 -7.31381091069107  0.03878781018102 -2.06311052175218
 6 -7.62624013121312 -1.30582228582858 -2.64212673527353
 6 -6.66387593639364 -2.10119969176918 -2.00138630433043
 6 -6.00503891929193 -1.35828939403940 -1.09683581398140
 6 -8.43015847364736 -1.70685081108111 -3.81207810401040
 6 -6.14659832693269 -3.56776236013601 -2.12635619071907
 8 -6.48531292679268 -4.56822452085208 -2.67906417151715
 6 -5.07170573267327 -3.53078113071307 -0.86711903170317
 6 -5.39368684608461 -4.60988642974297  0.15105877767777
 8 -5.86884265586559 -4.46059506760676  1.21456782018202
 8 -5.23733343154315 -5.85387658405840 -0.40392353695370
 6 -5.56494405860586 -7.03905575887589  0.35708753855386
 6  2.40536150935093 -4.97694881508151  0.65032898729873
 6  3.43443797879788 -3.98352851375138  0.92165006480648
 6  4.05894528472847 -3.19437230733073  0.10797443244324
 6  3.80279461836184 -2.97670261156116 -1.42266177067707
 6  5.21506793259326 -2.30230527812781  0.63345714451445
 6  6.56446131743174 -2.49852277747775 -0.07675620822082
 6  7.64657998159816 -1.59385874137414  0.53414910541054
 6  9.02836365766577 -1.99932476607661 -0.06449423192319
 6  9.51622800450045 -3.43421406180618  0.45772231453145
 6  10.05734631373137 -0.92505274267427  0.36742925842584
 6  11.42833013541354 -0.83020262716272 -0.30142890909091
 6  12.30670835943594  0.27252187968797  0.22365921352135
 6  13.72839529532953  0.41767663756376 -0.47470223342334
 6  14.66616491549155 -0.83690309290929 -0.20718486938694
 6  14.32822876247625  1.81008718031803 -0.11645089988999
 6  15.44912910331033  2.16463449164916 -1.02539753475348
 6  16.10013259765977  3.57737249004900 -0.63579419261926
 6  17.33752900200020  3.77093493509351 -1.45261919711971
 6  17.07628021772177  4.00354524622462 -2.94925714991499
 6  18.05357476357636  5.05451071637164 -0.87320677957796
 1 -2.58173389618962  1.42357663306331  3.67216768516852
 1 -6.56951493029303  5.49516489688969  0.70503949564956
 1 -8.90021042824282  1.20505080798080 -2.97344282308231
 1 -3.80140120492049 -3.27632294769477  1.84435249604960
 1 -1.84718184208421 -1.24300196179618  2.69625090119012
 1 -2.99897967706771 -2.72267542874287  3.94987853185319
 1 -3.51802259495950 -1.12872277667767  4.68703073287329
 1 -4.68311082278228 -2.08638771967197  3.92116606710671
 1 -2.50846616031603 -3.38024754205421 -0.12839346314631
 1 -1.75351318371837 -1.62057117341734  0.28598672027203
 1 -0.58135356885689 -2.96003729932993  2.42439665836584
 1 -1.29632435403540 -4.49883701490149  1.86090788878888
 1 -1.77666778057806  3.31770129452945  4.16523243294329
 1 -2.52175316541654  4.90060726672667  4.70513677137714
 1 -3.23631662666267  3.05758675617562  5.17138214421442
 1 -5.27761082498250  6.64232842724272  2.27410273167317
 1 -10.11213034653465  3.06343700080008 -3.31779503120312
 1 -10.32411320922092  4.68982282638264 -2.96698698939894
 1 -9.66785658545855  4.21381979597960 -5.36100130243024
 1 -8.14790429982998  4.84523426882688 -4.64251420642064
 1 -8.19354920392039  3.19477883668367 -4.95392531733173
 1 -7.94709229882988 -0.99006954985499 -4.54489548784878
 1 -8.18555953895390 -2.64935834093409 -4.12836547354735
 1 -9.56884696419642 -1.45229205260526 -3.70388729542954
 1 -4.24916227362736 -3.82632745934594 -1.42031531843184
 1  2.60643177617762 -5.94194213721372  1.05068102500250
 1  2.32637338073807 -5.20957793389339 -0.33020647024702
 1  3.41452357465747 -4.07430671247125  2.07638264586459
 1  2.83393838053805 -3.13358897999800 -1.47652019301930
 1  4.08765337863786 -2.03256681598160 -1.69134160466047
 1  4.57249942394239 -3.56193992319232 -2.06257518341834
 1  4.72321236213621 -1.12188861286129  0.72081396489649
 1  5.43083161046105 -2.36189782218222  1.75484036433643
 1  6.92752027872787 -3.45286847894789  0.02072995699570
 1  6.39290945134513 -2.43048065706571 -1.10985158065807
 1  7.50427935923592 -0.56782010711071  0.36739398489849
 1  7.84893699659966 -1.87380396349635  1.54582896819682
 1  8.97003111241124 -2.05349362456246 -1.10136347444744
 1  8.80986550525052 -4.32939171057106  0.39525573317332
 1  10.40379972077208 -3.57758196029603 -0.27871798529853
 1  9.96514557595760 -3.52795388688869  1.55020546324632
 1  9.69703885448545  0.15482120832083  0.33310867466747
 1  10.20052014951495 -1.25950248414842  1.49269880988099
 1  12.12323746504650 -1.76683671557156 -0.28925329852985
 1  11.32869895659566 -0.49057196209621 -1.36636797039704
 1  11.79046007950795  1.30867529672967  0.30960140494049
 1  12.44658948224822  0.02146333773377  1.19007728792879
 1  13.52941974267427  0.46357078937894 -1.61395363406341
 1  14.71626096439644 -0.99784799749975  0.92924860486049
 1  14.07748331933193 -1.92958197449745 -0.54142046354635
 1  15.69031001940194 -0.83908710691069 -0.58228512101210
 1  13.65715390959096  2.63531815091509 -0.09257104480448
 1  14.87968466876688  1.87442773197320  0.75040225412541
 1  16.51367302310231  1.55754436713671 -0.97713420412041
 1  15.21635721912191  2.19450336313631 -2.17189856955696
 1  15.36207761236124  4.39797517551755 -0.76770876897690
 1  16.36009877997800  3.51209785118512  0.44842474287429
 1  17.98550223162316  2.94726621782178 -1.15642472207221
 1  16.27665838623862  4.51506803570357 -3.24392675247525
 1  17.95743166666667  4.13932344564456 -3.29166377147715
 1  16.62921312151215  2.85586665666567 -3.24309234383438
 1  17.99444549174917  5.08050926842684  0.17988965316532
 1  19.08864638693870  5.24163831603160 -1.39130604500450
 1  17.28167971887189  5.90564006710671 -1.11262532383238
 1 -5.12710801220122 -7.96862629572957 -0.27367090479048
 1 -6.70279470977098 -7.23245033163316  0.44566807430743
 1 -5.04991315991599 -6.95902747834783  1.41413587018702
 8 -7.76642423402340  6.93362986378638 -0.52878066206621
 1 -9.18610690779078  6.37401304620462 -1.85944162696270

