%nproc=4
%Mem=4GB
# td=(NStates=1) iop(3/107=0140000000,3/108=0140000000) iop(3/107=0140000000,3/108=0140000000) CAM-B3LYP/6-31G(d,p) 

TD

0 1
12 -5.62165367196720  1.24202907720772  0.27620622582258
 6 -5.10081046824682 -2.12835129842984 -0.32970983778378
 6 -3.38106689578958  1.09902018681868  2.67582295559556
 6 -6.28369716541654  4.61269453365337  0.72874308310831
 6 -7.97732349944995  1.20495134583458 -2.44362203570357
 7 -4.42251650495050 -0.29775796759676  1.02253359215922
 6 -4.30292381988199 -1.57480118171817  0.71144349394939
 6 -3.23220634513451 -2.27689099189919  1.40840520422042
 6 -2.92710588158816 -1.35201809270927  2.67372392849285
 6 -3.61616904430443 -0.07072970067007  2.18107269246925
 6 -3.70397343674367 -1.79856329772977  3.87865056445645
 6 -1.99340453365337 -2.65748315761576  0.71358666416642
 6 -1.01607325082508 -3.64767234783478  1.48418200620062
 6  0.23345844634463 -3.89394323502350  0.61973016771677
 8  0.51535159945995 -3.44405171877188 -0.47255348954896
 8  1.16953379907991 -4.59020863816382  1.27198180548055
 7 -4.99214003030303  2.59080845774577  1.45351558325833
 6 -4.09030111991199  2.38854627632763  2.50403100640064
 6 -3.75873537723772  3.57794629682968  3.21342189838984
 6 -4.50544109680968  4.56150767906791  2.55614488578858
 6 -5.34858096229623  3.94066216141614  1.53734982728273
 6 -2.75354071717172  3.62307968376838  4.37531172057206
 6 -4.65827235783578  5.95146256675668  2.85649515431543
 8 -4.05396544454445  6.47397528552855  3.83250715061506
 7 -6.81347514741474  2.62946284208421 -0.68801045734573
 6 -6.93219593439344  3.97143676087609 -0.34772646134613
 6 -7.93457864426443  4.49683640844084 -1.20643475297530
 6 -8.40917037033703  3.60937786768677 -2.04710365476548
 6 -7.68744763526353  2.38295430423042 -1.80070601710171
 6 -8.33421641254125  6.02657256665667 -1.15240474927493
 6 -9.41279564286429  3.82878327652765 -3.23691832463246
 6 -8.75223667736774  4.04050219641964 -4.58441484548455
 7 -6.37431585058506 -0.12897791549155 -1.07883297529753
 6 -7.35146467606761 -0.02107817641764 -2.12995720642064
 6 -7.55236274347435 -1.31526322992299 -2.75583810641064
 6 -6.71356090489049 -2.11807137893789 -2.12135830153015
 6 -6.06069448484848 -1.38124168926893 -1.03502963336334
 6 -8.69196465426543 -1.54752487848785 -3.69091598779878
 6 -6.25257892499250 -3.58747433133313 -2.11776533163316
 8 -6.60909530503050 -4.58242594099410 -2.59910617571757
 6 -5.20001856395640 -3.57576562916292 -0.88458077787779
 6 -5.33772124952495 -4.60826626772677  0.10074374617462
 8 -5.87065283688369 -4.40588959705971  1.21899826322632
 8 -5.03306300450045 -5.77205840224022 -0.38270141474147
 6 -5.39010657485749 -6.95854770807081  0.41288311811181
 6  2.39085005820582 -5.03278439863986  0.59311326572657
 6  3.44161869686969 -4.13170333123312  1.08181608140814
 6  4.11730112031203 -3.26927979807981  0.26816045104510
 6  3.66006034493449 -3.15930087138714 -1.25082458695870
 6  5.14736116191619 -2.38051309890989  0.75581938073807
 6  6.59555442674267 -2.70954387958796  0.12286375377538
 6  7.67157248084809 -1.83410276577658  0.65141083158316
 6  9.05297611891189 -1.98335316891689 -0.10949873237324
 6  9.67449383108311 -3.39568020842084  0.08586512881288
 6  10.06520709980998 -0.80547078447845  0.34764728022802
 6  11.42089939233923 -0.77839744664466 -0.41521028722872
 6  12.22727041564156  0.33418804630463  0.17372422002200
 6  13.57635009080908  0.57695256515652 -0.54012877607761
 6  14.52914121312131 -0.67621702430243 -0.37887203810381
 6  14.30257619721972  1.79099527112711 -0.13082233703370
 6  15.54790898129813  2.18509653785379 -0.97290228522852
 6  16.25862844724472  3.51927668046805 -0.53235384858486
 6  17.46840208930893  3.79117695929593 -1.37758169336934
 6  17.02742533223322  3.91381627332733 -2.91535375957596
 6  18.24595400150015  5.22901816711671 -0.95128458735874
 1 -2.86448217101710  1.11344561996200  3.64215468386839
 1 -6.60989896869687  5.55125050545054  1.01692068376838
 1 -8.75301570877088  1.21008131103110 -3.29300477927793
 1 -3.62363342814281 -3.15955127052705  1.81335939673967
 1 -1.89076620052005 -1.25043270487049  2.65887716381638
 1 -3.47900767986799 -2.84992815401540  4.32161570557056
 1 -3.54832562526253 -1.13760366476648  4.83981601140114
 1 -4.71992450415041 -1.59040812171217  3.60238418891889
 1 -2.26933224692469 -3.04818433573357 -0.29390001380138
 1 -1.63769160156016 -1.41938105440544  0.56543466506651
 1 -0.44406984048405 -3.23328462406241  2.47391160986099
 1 -1.67941266286629 -4.65262239343934  1.68805060306031
 1 -1.66189630343034  3.32013153755376  3.85509141884188
 1 -2.44289527962796  4.66106331233123  4.72917917561756
 1 -3.24039703470347  3.17527852535254  5.30587559355936
 1 -5.32017508140814  6.35330952535254  2.21346666806681
 1 -10.14323345684568  2.83573423052305 -3.11364461616162
 1 -10.10903170107011  4.63351719581958 -2.82920321102110
 1 -9.47815761556156  4.09426784078408 -5.29103430573057
 1 -8.15949545894589  4.88328807420742 -4.61636159115912
 1 -8.11925177417742  3.31918127692769 -4.88491841664166
 1 -8.34789237883789 -0.95610615351535 -4.50191118941894
 1 -8.51915289828983 -2.54301770687069 -3.92187482448245
 1 -9.61506158565857 -1.47554437783778 -3.31971887858786
 1 -4.24407176457646 -3.92415724232423 -1.63150643754375
 1  2.39451058405841 -6.00376831983198  1.06087204410441
 1  2.09713045644565 -5.10458743484348 -0.33749719931993
 1  3.81716383868387 -4.27321660346035  2.15357036463646
 1  2.51975696239624 -3.34024964606461 -1.69066160716072
 1  4.06184079737974 -2.07852141144114 -1.51481395189519
 1  4.41787396139614 -3.82485621482148 -1.83685261116112
 1  5.00977101800180 -1.16343276727673  0.63044492799280
 1  5.35522404970497 -2.53433506590659  1.70820570087009
 1  6.70948847554755 -3.73224641674167  0.08923680768077
 1  6.38156831723172 -2.43252086108611 -0.92774336983698
 1  7.29536846814681 -0.82622594769477  0.45988323382338
 1  7.64408651155115 -1.83970055315532  1.74062844814481
 1  8.68644275357536 -2.05293356855686 -1.18949228732873
 1  8.81408592729273 -4.21961073247325 -0.09282307470747
 1  10.46649599039904 -3.43791799389939 -0.49598971247125
 1  9.95566462786279 -3.29677076857686  1.22358280098010
 1  9.59470862146215  0.29341506770677  0.58324368816882
 1  10.32963306080608 -1.23276981088109  1.40739027902790
 1  11.91461660296030 -1.83737376927693 -0.31836620982098
 1  11.23702978967897 -0.73244614951495 -1.51415274887489
 1  11.59682071557156  1.28977340654065  0.41336178097810
 1  12.41426624992499  0.19706089748975  1.11898017821782
 1  13.48348514921492  0.64352878517852 -1.63187542624262
 1  14.87466680498050 -0.83253146584658  0.68681436143614
 1  13.90577614861486 -1.64371338763876 -0.45431175267527
 1  15.46069705810581 -0.57544074227423 -0.95963285578558
 1  13.57551574577458  2.66559117821782 -0.01932372007201
 1  14.63332003230323  1.55575586478648  0.89111632553255
 1  16.16435809160916  1.17970658335834 -0.90291678237824
 1  15.27847343074307  2.09814372717272 -2.12698407810781
 1  15.53911531613161  4.38159353735374 -0.59865186328633
 1  16.46150892099210  3.60425706710671  0.41983188358836
 1  18.36083976537654  3.08791028222822 -1.17729680928093
 1  16.50499121952195  4.87474400330033 -2.89985234503450
 1  17.92964888838884  3.94667418071807 -3.52575718081808
 1  16.27803800400040  2.96548761876188 -3.09176721132113
 1  18.59863591079108  5.10870208770877  0.09125078927893
 1  19.06876439873987  5.62518667086709 -1.63376029042904
 1  17.56677822872287  5.97693719681968 -1.06258031933193
 1 -4.98561386278628 -7.78973840694069 -0.07377091479148
 1 -6.53288771907191 -7.03150023662366  0.47031053855386
 1 -4.91984015261526 -6.73003457905791  1.35265972257226
 8 -7.91347893949395  6.90508700950095 -0.48447623162316
 1 -9.13407170427043  6.13645929082908 -2.04825050785079

