%nproc=4
%Mem=2GB
# td=(NStates=1) iop(3/107=0140000000,3/108=0140000000) iop(3/107=0140000000,3/108=0140000000) CAM-B3LYP/6-31G(d,p) 

TD

0 1
12 -6.73973654575458  0.59140828492849  0.31802942244224
 6 -4.54948205470547 -2.21172959475948  0.42646292329233
 6 -4.05120693609361  2.77308894199420  0.97319020062006
 6 -8.86181888658866  3.37300132423242 -0.22840234193419
 6 -9.34831292889289 -1.56966999659966 -0.60974103280328
 7 -4.64718979087909  0.31467086478648  0.70594962706271
 6 -3.96539380498050 -0.92480218701870  0.71151170657066
 6 -2.42131555015502 -0.66888864806481  1.01109317161716
 6 -2.37196716251625  0.81062121092109  1.47913007550755
 6 -3.85633189608961  1.29300938613861  1.04341911661166
 6 -2.31981826752675  1.09771156705671  2.81052561536154
 6 -1.58187693609361 -0.95238780218022 -0.20718939263926
 6 -0.21720983928393 -1.37191889848985  0.19955902940294
 6  0.76734781398140 -1.57925516241624 -0.95237341114111
 8  0.63411347944794 -1.24758737123712 -2.05905689588959
 8  1.96688697529753 -2.25732603120312 -0.42220714321432
 7 -6.49946168836884  2.57416778677868  0.42730647854785
 6 -5.38081864276428  3.26683532673267  0.64400069626963
 6 -5.46063027822782  4.85037472227223  0.52240710931093
 6 -6.91747246064607  4.90084617511751  0.24997158045805
 6 -7.67819952385239  3.57900670907091  0.19667449884988
 6 -4.69555447574757  5.86043347384738  1.05902357035704
 6 -7.75754731603160  6.08845576567657  0.09456898059806
 8 -7.30559447564757  7.14301591819182  0.27997585438544
 7 -8.73768732223222  0.91513237243724 -0.24760740984098
 6 -9.37673134553455  1.96977171247125 -0.41956300860086
 6 -10.75903253355336  1.80554042514251 -0.83022880408041
 6 -10.91397575507551  0.38543944834483 -1.07337819331933
 6 -9.70475213851385 -0.23965212841284 -0.58808088478848
 6 -11.67592436773677  2.85516170927093 -1.18489314011401
 6 -12.12892601310131 -0.39892345464546 -1.45818395209521
 6 -12.13458032013201 -0.82008417361736 -2.89885267996800
 7 -6.96627311021102 -1.40269283058306  0.01668902440244
 6 -8.09865252685269 -2.16662665936594 -0.38709190719072
 6 -7.79978756385639 -3.51618894129413 -0.35845685578558
 6 -6.43222884408441 -3.68501766266627 -0.09637789838984
 6 -6.01684797349735 -2.26740555505551  0.18529471377138
 6 -8.75582410591059 -4.68069544734473 -0.76675949184918
 6 -5.19880608510851 -4.52471826992699  0.07483550925093
 8 -4.93995574427443 -5.68516905520552 -0.07550704410441
 6 -4.07157088248825 -3.60779133833383  0.48006265346535
 6 -3.54174768566857 -3.81213738923892  1.91636134913491
 8 -4.15215045514551 -4.05121185598560  2.91869053885389
 8 -1.88177985288529 -3.68063436873687  2.13757369656966
 6 -1.47806632873287 -3.93098818891889  3.32972739793979
 6  3.14772666546655 -2.44994017091709 -1.42512375647565
 6  4.12445621302130 -1.27414441554155 -1.29541507380738
 6  5.15351610701070 -1.05641251265126 -2.06766296789679
 6  5.45018900270027 -2.12308544324432 -3.22848983118312
 6  6.12091591619162 -0.11100875377538 -1.62775933443344
 6  7.47625631963196 -0.98510429252925 -1.03569030633063
 6  8.42716527682768  0.05615124972497 -0.60986946744674
 6  9.86601969136914 -0.46720364066407 -0.07891619731973
 6  9.53377089338934 -1.04922373707371  1.36949131793179
 6  10.88729105910591  0.64525938013801 -0.08979414101410
 6  12.20572584308431 -0.01651034383438  0.36910522172217
 6  13.41288283088309  1.09889716441644  0.19366226462646
 6  14.79055539073907  0.40593387148715  0.50474513661366
 6  15.00764575267527 -0.02030431093109  2.13994391839184
 6  15.80990061846185  1.62244714671467  0.13138634393439
 6  17.18024750285029  0.98454367876788  0.18456158225823
 6  18.15395494289429  1.95896308750875 -0.19906005280528
 6  19.61837403850385  1.46759525432543 -0.22780286398640
 6  19.65225502680268  0.73103853415342 -1.62036782798280
 6  20.69158632753275  2.40595201320132 -0.33679877577758
 1 -3.20196083438344  3.41732298329833  1.55290469216922
 1 -9.32064604710471  4.50233931903190 -0.46894052795280
 1 -10.23530602220222 -2.31405180448045 -0.56019884578458
 1 -2.07354987178718 -1.25458307610761  2.09290933923392
 1 -1.70269960856086  1.29039951615162  0.54418087148715
 1 -1.27191857555756  1.00227854225423  3.12339305040504
 1 -2.59610778467847  2.11379995639564  3.35765188298830
 1 -2.91110344284428  0.42015990129013  3.36980284938494
 1 -1.94782380268027 -1.57542881588159 -0.75378316511651
 1 -1.62182735173517  0.08268679577958 -0.60163995479548
 1  0.23484148244824 -0.53297473077308  0.72691855705570
 1 -0.12284600440044 -2.22735906970697  0.52617284938494
 1 -4.03908843924392  5.79266709460946  0.26550150785078
 1 -5.07442772337234  6.93495617151715  0.92269917601760
 1 -4.38800982918292  5.64946390739074  2.14255202750275
 1 -8.64866788088809  5.80255536473647 -0.32972934873487
 1 -12.06463601720172 -1.39932079957996 -0.75547997519752
 1 -12.93160937593759  0.18565496529653 -0.98650628702870
 1 -13.15329315241524 -1.33952606800680 -2.71732884998500
 1 -12.50689765356536  0.09224664616462 -3.72283445294529
 1 -11.55601242564257 -1.38607192419242 -3.34586119351935
 1 -9.39144832813281 -4.28675523112311 -1.88162039003900
 1 -7.81991720632063 -5.68030804340434 -0.98208786068607
 1 -9.61301858185819 -4.85558751995200 -0.10240563106311
 1 -3.48257783918392 -3.73578730363036 -0.29014732153215
 1  3.41417303270327 -3.50599787358736 -1.04748046514651
 1  2.48887317611761 -2.67996391139114 -2.47197743304330
 1  3.71012834053405 -0.76761951035103 -0.28819521792179
 1  5.05053811081108 -1.98201167366737 -4.16474658965897
 1  6.31097467586759 -2.36954562996300 -3.79257048094810
 1  5.29970379777978 -3.29124173847385 -3.06713089688969
 1  6.44551497339734  0.69278461586159 -2.63345596279628
 1  5.49195430483048  0.78232378017802 -0.77162142554255
 1  6.61853303220322 -1.58387658475848 -0.19103738213821
 1  7.81102650105011 -1.93571236153615 -1.81420089598960
 1  8.74919705110511  0.38657925272527 -1.70058284358436
 1  7.92356085418542  1.03689887808781 -0.07042133373337
 1  10.25787823492349 -0.83651109480948 -0.87691484908491
 1  8.66582882718272 -1.83240205590559  1.43060142094209
 1  10.21576764616461 -1.81931581278128  1.43608549994999
 1  9.72117532913291 -0.21110233263326  2.11049235433543
 1  11.08858249604961  1.09227198709871 -1.50825799739974
 1  10.55709545614561  1.42845172077208  0.60564444474447
 1  11.96446398859886 -0.39321176067607  1.60961464476448
 1  12.70451260526053 -0.64055227582758 -0.23302630013001
 1  13.33655852585259  1.56635618061806 -0.74622352695270
 1  13.12225427022702  1.82984723602360  1.00362615201520
 1  15.06648807460746 -0.68073558955896  0.11766357515752
 1  14.96367626752675  0.77023741924192  2.66770954395440
 1  14.15887316081608 -0.91187885978598  2.47920541864187
 1  16.04355138823882 -0.34507809090909  2.27904438213821
 1  15.29498063296330  1.95451544494450 -1.04220419511951
 1  15.60496452905291  2.75139467496750  0.57967629082908
 1  17.61498281338134  0.61120429102910  1.00022020872087
 1  17.26336386058606  0.26631480068007 -0.43528490589059
 1  17.85657066416642  2.29077562536254 -1.38635162346235
 1  18.17790778687869  2.95210911781178  0.66590326082608
 1  19.60065262646265  0.70524337053705  0.49573292409241
 1  19.50146846484648  1.32427747734773 -2.49142126732673
 1  20.52995728572857  0.28744694289429 -1.70631476487649
 1  19.09974270127013 -0.28967668606861 -1.70267834253425
 1  20.73395017361736  3.04885446454646  0.69240999459946
 1  21.67211495179518  1.76055263796380 -0.12265498049805
 1  20.61886853975397  3.15275276247625 -1.11586638293829
 1 -0.42760838593859 -4.07974072347235  3.21468981698170
 1 -1.71054073507351 -4.65663293699370  4.06692732933293
 1 -1.49526353965397 -3.32443092019202  4.00028418161816
 8 -11.61566994129413  3.92383718291829 -0.78135994969497
 1 -12.61930244174417  2.29480072017202 -1.85090569556956

