%nproc=4
%Mem=4GB
# td=(NStates=1) iop(3/107=0140000000,3/108=0140000000) iop(3/107=0140000000,3/108=0140000000) CAM-B3LYP/6-31G(d,p) 

TD

0 1
12 -5.51865337193719  1.24003887818782  0.24212281748175
 6 -4.95724611181118 -2.18518698199820 -0.33831069786979
 6 -3.39863865296530  1.12617290209021  2.65517089038904
 6 -6.12072086778678  4.60912417661766  0.68602881168117
 6 -7.97663343044304  1.17732858355836 -2.28403607710771
 7 -4.38944319761976 -0.36674486628663  1.06553789258926
 6 -4.26529005650565 -1.61105480708071  0.74756710631063
 6 -3.27640076457646 -2.34403770657066  1.51104546824682
 6 -2.92095526652665 -1.33126601750175  2.63205976207621
 6 -3.51024845224522 -0.07231985968597  2.11194577977798
 6 -3.49472251165117 -1.83199664106411  3.98587128652865
 6 -2.07333252645265 -2.72040945024502  0.61133643914391
 6 -1.05197684118412 -3.53856143674367  1.27647123512351
 6  0.27455255575558 -3.85622946364636  0.42415060976098
 8  0.46834689898990 -3.45019233283328 -0.71613784798480
 8  1.01062790849085 -4.63143276057606  1.16381098839884
 7 -4.99952076837684  2.58062743964396  1.43209344104410
 6 -4.02679476927693  2.39275669736974  2.35100570387039
 6 -3.70703020672067  3.60979948214821  3.01000155635564
 6 -4.53650420312031  4.55079660796080  2.50592986428643
 6 -5.23398950315031  3.91718981418142  1.48488458075808
 6 -2.74907027012701  3.77065444124412  4.22501669106911
 6 -4.47758428902890  6.09630705120512  2.77908741354135
 8 -3.91256130413041  6.60258814681468  3.70019391929193
 7 -6.96707050695070  2.58906880268027 -0.62153380968097
 6 -6.88713142794279  3.90646026322632 -0.40894258295830
 6 -7.89359454585459  4.58319504430443 -1.20743485298530
 6 -8.44631408470847  3.62096902680268 -2.04537348174817
 6 -7.74262315281528  2.35390139893989 -1.71135708220822
 6 -8.31733472437244  6.00393030243024 -1.06421593039304
 6 -9.44429879317932  3.82806320452045 -3.15988062086209
 6 -8.77971942564256  4.02833097929793 -4.56285268926893
 7 -6.32449086808681 -0.15237025472547 -1.06352144414441
 6 -7.19047857745775 -0.00477654625463 -2.03127733843384
 6 -7.58019552675268 -1.31439314291429 -2.69964248684868
 6 -6.66331588038804 -2.20783035483548 -2.07400356605661
 6 -5.92766118151815 -1.40895446054605 -1.08705483588359
 6 -8.41855731353135 -1.59141926792679 -3.77268416461646
 6 -6.34096776387639 -3.64564014791479 -1.88901245634563
 8 -6.76083047854786 -4.65740343874387 -2.45458172327233
 6 -5.10358892099210 -3.70220827342734 -0.85330765056506
 6 -5.40606808420842 -4.65107054815482  0.21223489528953
 8 -5.95859163076308 -4.49041804990499  1.29731609500950
 8 -5.14832453065307 -5.91002219861986 -0.20851399599960
 6 -5.41572913711371 -7.02663451675167  0.74759658945895
 6  2.30817179037904 -5.01801292149215  0.52737669206921
 6  3.32035657065707 -4.02142230313031  0.91471937173717
 6  4.07317670787079 -3.17088995909591  0.05858949394939
 6  3.70681502040204 -2.94891983328333 -1.40878038253825
 6  5.10170659645965 -2.17733278087809  0.48458225702570
 6  6.48704357565757 -2.55828875407541 -0.08883741634163
 6  7.58381370497050 -1.68351770727073  0.50868655915592
 6  9.02100292159216 -1.87430226382638 -0.13371115361536
 6  9.52669905160516 -3.37011765216522 -0.00687414511451
 6  9.95896647574757 -0.94143438083808  0.38252076757676
 6  11.29959726212621 -0.79927953485349 -0.36567533373337
 6  12.23813150175017  0.39519414691469  0.05890273787379
 6  13.59768222402240  0.38108297819782 -0.59416417961796
 6  14.53580187918792 -0.78277768036804 -0.24198834973497
 6  14.33258919851985  1.71767793939394 -0.12650190499050
 6  15.57769195959596  2.19198722692269 -0.94357935293529
 6  16.10889347374738  3.51654640744074 -0.49363997719772
 6  17.44583983308331  3.89673751535154 -1.13457739293929
 6  17.32682527222722  3.94986987868787 -2.72515473967397
 6  17.95684509060906  5.26139140444044 -0.57767722662266
 1 -2.84456017881788  1.17429170457046  3.60319078747875
 1 -6.21011899069907  5.68081346174617  0.63237222892289
 1 -8.60024043124312  0.97195749864986 -3.03789926872687
 1 -3.72704376917692 -3.14945026042604  1.96367442824282
 1 -1.92311943584358 -1.06366402800280  2.92349362546255
 1 -2.99831961106111 -2.71540470167017  4.19999354335434
 1 -3.41054184688469 -1.04135403980398  4.75734776457646
 1 -4.62428494019402 -2.05868494939494  3.99268321882188
 1 -2.37569288298830 -3.09263878117812 -0.34431505530553
 1 -1.47881571397140 -1.82271138743874  0.33305142674267
 1 -0.47034246774677 -3.22436373197320  2.36479069776978
 1 -1.42913763536354 -4.62460959215922  1.57933973197320
 1 -1.75240535433543  3.37991751615162  3.88994490419042
 1 -2.74067505760576  4.91454866086609  4.59796605430543
 1 -3.16553954895490  3.15986698419842  4.95138014401440
 1 -5.19623268716872  6.68818301270127  2.29710503190319
 1 -10.38718785228523  3.17977863496350 -3.00939419111911
 1 -9.94910570847085  4.68915275937594 -2.75398568926893
 1 -9.57252705250525  4.06262467646765 -5.30932613491349
 1 -8.13835334473447  5.01119086448645 -4.42660261526153
 1 -8.12528237723772  3.18390774957496 -4.89771969676968
 1 -8.21482907250725 -1.00942148504850 -4.64276527482748
 1 -8.54159514251425 -2.75613901900190 -4.04582721972197
 1 -9.43825390489049 -1.36514333773377 -3.47504441114111
 1 -4.28763612101210 -4.05973079967997 -1.29174246114611
 1  2.55023615661566 -6.00318826182618  1.15711166806681
 1  2.17079782318232 -5.08192516861686 -0.46003945354535
 1  3.80139226152615 -4.10965024682468  1.91921692929293
 1  2.59356434313431 -3.54132975407541 -1.76510905190519
 1  3.62827744104410 -1.83252681198120 -1.44025649614961
 1  4.75843801780178 -3.40919464866487 -2.00965989188919
 1  4.87374741564156 -1.03678010201020  0.51256313981398
 1  5.23877240454045 -2.33227485988599  1.71195607590759
 1  6.71329885658566 -3.49845303740374  0.20771865586559
 1  6.44322448284828 -2.68804641364136 -1.29866046154615
 1  7.29490842214221 -0.62145547064706  0.50999824532453
 1  7.53128523142314 -1.77402398549855  1.58082246754675
 1  8.92517662696270 -1.73602187738774 -1.11927526562656
 1  8.95713023172317 -3.94934370577058 -0.30248404080408
 1  10.67221656245625 -3.58685288738874 -0.38777889138914
 1  9.57278634003400 -3.59342043354335  1.04319476217622
 1  9.47110626122612  0.13513924012401  0.29279464326433
 1  10.20510060756076 -0.85596213011301  1.40623016301630
 1  11.87959310061006 -1.80317034893489 -0.23306767996800
 1  10.83497958465847 -0.71693459835984 -1.39891122472247
 1  11.64059509300930  1.31758618781878 -0.09904946014601
 1  12.31818664196420  0.37627881928193  1.26320460066007
 1  13.29294609530953  0.33422785508551 -1.62577481618162
 1  14.68382772107211 -0.66037425012501  0.72327800780078
 1  13.87763333433343 -1.71751076737674 -0.46164248574857
 1  15.48422941134113 -0.83905710391039 -0.86672356485649
 1  13.59836803100310  2.61947656675668 -0.10527231493149
 1  14.72739944024403  1.64088437763776  0.89517673157316
 1  16.42846450225023  1.37914652735274 -0.77680417111711
 1  15.31566715011501  2.03472738553855 -1.87007838753875
 1  15.37978938353836  4.11854723272327 -0.89478147624763
 1  16.15035780588059  3.40685732713271  0.71191109150915
 1  18.19641332273227  3.20673216441644 -0.74164324392439
 1  16.59665038543854  4.79531606050605 -2.95177753755376
 1  18.33096902040204  4.10917043034303 -3.06381098619862
 1  16.90227042724273  2.99726079607961 -3.23409144374437
 1  17.97972401960196  5.10736195369537  0.55118678287829
 1  18.81796931923192  5.53732788498850 -0.93019993439344
 1  17.29928147904791  6.05748525162516 -1.00751481278128
 1 -4.94081938333833 -8.01454088718872  0.34252071437144
 1 -6.47125155545555 -7.24795188178818  0.65823933143314
 1 -5.19277744634464 -6.61056263186319  1.86498095469547
 8 -7.76946453805381  6.78989549034904 -0.35542332633263
 1 -9.20915921302130  6.20265591049105 -1.63205888868887

