%nproc=4
%Mem=2GB
# td=(NStates=1) iop(3/107=0140000000,3/108=0140000000) iop(3/107=0140000000,3/108=0140000000) CAM-B3LYP/6-31G(d,p) 

TD

0 1
12 -6.65309788188819  0.57803694779478  0.01653927342734
 6 -4.44887199369937 -1.96936535833583  0.46876715371537
 6 -4.12516433183318  2.80755238833883  1.09192207380738
 6 -8.99068177287729  3.14866889098910 -0.24557405910591
 6 -9.21225932353235 -1.72773580318032 -0.59003906260626
 7 -4.63754882678268  0.57372677037704  0.45771480358036
 6 -3.89134640024002 -0.73359306610661  0.57861841724172
 6 -2.42065548414842 -0.47512927212721  1.00992305460546
 6 -2.50217018281828  1.04538468726873  1.27867002950295
 6 -3.80727699059906  1.53318340354035  0.95755052975298
 6 -1.95553183888389  1.36295809170917  2.57626218901890
 6 -1.53385213361336 -1.05842840624062 -0.12227090079008
 6 -0.18069618791879 -1.35172687928793  0.26808588208821
 6  0.77514859405941 -1.30957819471947 -0.82691086488649
 8  0.82707277537754 -0.86406901940194 -1.87028801900190
 8  1.97664795139514 -2.04710500910091 -0.47378230073007
 7 -6.67159890209021  2.57511788178818  0.58266201410141
 6 -5.50061062196220  3.29132777597760  0.76094239043904
 6 -5.95168938413841  4.74193387818782  0.79058392699270
 6 -7.11341205460546  4.89110520102010  0.41925850915092
 6 -7.72101380528053  3.49404821322132  0.23613844524452
 6 -5.04268918921892  5.80140757125713  1.25636330433043
 6 -8.03479504080408  6.07154407450745  0.17906743044304
 8 -7.51071498769877  7.17508912551255  0.34302215901590
 7 -8.63402695619562  0.71122198139814 -0.34308695779578
 6 -9.36929060146015  1.84464920022002 -0.37168822112211
 6 -10.76129275957596  1.57279715081508 -0.80571635283528
 6 -10.76629098659866  0.24708561296130 -1.16446730223022
 6 -9.56940860416042 -0.31981014421442 -0.76571864856486
 6 -11.79697647294729  2.54605079817982 -0.95924057485749
 6 -12.05750887138714 -0.56536009830983 -1.51591972567257
 6 -12.00514737683768 -0.86463862906291 -2.99018181288129
 7 -6.90029651255126 -1.51057361866187 -0.00339298379838
 6 -7.92467512911291 -2.25633563026303 -0.47049024702470
 6 -7.44278186328633 -3.71431875427543 -0.50494150425042
 6 -6.16842246344634 -3.68308746964696 -0.29414767536754
 6 -5.85637192589259 -2.31272008650865  0.00591677597760
 6 -8.57016554005400 -4.87269464726473 -0.68795161106111
 6 -4.99281548604861 -4.42183798189819  0.03738176387639
 8 -4.78815056375638 -5.56799733803380  0.02018252485248
 6 -3.94168789418942 -3.40658121732173  0.53210785798580
 6 -3.43512702360236 -3.56516269176918  2.02807252025203
 8 -3.89431467156716 -3.86662339713971  3.07578624842484
 8 -2.03749542444244 -3.49339564486449  2.10144008320832
 6 -1.22379090119012 -3.77991308140814  3.34123854905491
 6  2.95259715251525 -2.30746592349235 -1.47903914801480
 6  4.03716748414841 -1.30472747384738 -1.03823935623562
 6  5.00941169656966 -1.02985985738574 -1.86377257885789
 6  5.32582656645665 -1.70310344504450 -3.21393837603760
 6  6.11537536213621  0.01773412051205 -1.36549310781078
 6  7.35498419241924 -0.61257703980398 -0.83048978627863
 6  8.53056561686169  0.31420705530553 -0.62035051555156
 6  9.66277936733673 -0.44598151845185  0.00688238253825
 6  9.26989450575057 -1.13690250495050  1.57751212001200
 6  10.86081841184119  0.67353220742074 -0.06823198479848
 6  12.24303957445745 -0.09177787058706  0.19498780998100
 6  13.26229777237724  0.88211548624862  0.35816871527153
 6  14.70876721192119  0.29395267336734  0.38685334743474
 6  15.01617660576058 -0.32605488598860  1.86643656765677
 6  15.70934056245625  1.27185208720872 -0.13619041374137
 6  17.14168364646465  0.72783800820082 -0.06304317821782
 6  18.32962250965097  1.70545773697370 -0.15074522132213
 6  19.51134333543354  1.16955545034503 -0.42140222392239
 6  19.61925172647265  0.47731316161616 -1.85162095329533
 6  20.55207237613762  2.20778219621962 -0.01548664456446
 1 -3.43490412871287  3.41013226422642  1.38854825652565
 1 -10.02245622812281  3.68826791189119 -0.51036467036704
 1 -10.04789728132813 -2.66436683598360 -0.60944377027703
 1 -2.33225574237424 -1.24698231603160  1.81722177047705
 1 -1.68563790239024  1.26870734693469  0.52247870127013
 1 -1.09206058975898  0.79433774817482  2.73153386448645
 1 -1.73866204010401  2.27600617701770  2.95249136693669
 1 -2.68141047354735  1.02829071437144  3.37306317541754
 1 -1.84424344464446 -1.79919119211921 -0.50825861266127
 1 -1.63483865286529 -0.27440891379138 -1.14488427922792
 1  0.06389438773877 -0.48623005630563  1.05708157335734
 1 -0.03646736653665 -2.20968730253025  0.74637486958696
 1 -4.09879440984098  5.80727855575558  0.68210316801680
 1 -5.38555883648365  6.80711338723872  1.15353225932593
 1 -4.58675970417042  5.70284924592459  2.14891266356636
 1 -9.28868188228823  5.73470858005801 -0.05191156695670
 1 -12.20734028762876 -1.18742961046105 -0.82319674687469
 1 -13.01407762276228  0.28629502930293 -1.30456809320932
 1 -12.68430625372537 -1.49709182458246 -3.61499861696170
 1 -11.62451941574158  0.10267768926893 -3.78839100860086
 1 -10.95633245764576 -1.37144046104610 -2.96857346474648
 1 -9.44420360366037 -4.54867142274227 -1.36883911191119
 1 -7.65225043964396 -5.95720573317332 -1.20718036993699
 1 -8.99107638763877 -5.23945590679068  0.40661527102710
 1 -3.27894747614762 -3.37922164706471 -0.51223953075308
 1  3.13836545194519 -3.49063633743374 -1.27155287238724
 1  2.84808909770977 -2.21070698569857 -2.75551578687869
 1  3.70737806550655 -0.67758050645064 -0.11603800220022
 1  4.81987504450445 -1.63164663716372 -3.92816293129313
 1  6.17327090549055 -1.12940161556156 -4.01790301420142
 1  5.37681150855086 -2.79335194949495 -3.03242742654265
 1  6.57405782768277  0.67522285968597 -2.50586320352035
 1  5.74452956235624  0.62940848864886 -0.66124038743874
 1  7.04609578847885 -1.13627182428243  0.30719244084409
 1  7.92404780318032 -1.40888967926793 -1.55019449534954
 1  8.69417154855485  0.78571916671667 -1.61533431873187
 1  8.26678517661766  0.88306349454945  0.29509521792179
 1  10.16706915401540 -1.27389483318332 -0.95774293189319
 1  8.83961620592059 -2.03151196689669  1.12074043484348
 1  10.22870894029403 -1.58340222142214  2.17179907130713
 1  8.85664887648765 -0.55378660106011  2.32771407650765
 1  10.50789442724272  1.35301806170617 -1.20540771237124
 1  10.74962470907091  1.49983885948595  0.92569644994500
 1  12.45754329652965 -0.90162260176018  0.81398508180818
 1  12.36608876287629 -0.83349156975698 -0.75258825632563
 1  12.95962083208321  1.58351789678968 -0.44816372097210
 1  13.19872191699170  1.44408866016602  1.13327911731173
 1  14.75994742054205 -0.56022353835384 -0.47550574177418
 1  15.24504440434043  0.30276067156716  2.71554432743274
 1  14.11741901540154 -0.75524319621962  2.26152365046505
 1  15.91297833093309 -1.03187677077708  1.84201067876788
 1  15.45719685458546  1.64139413281328 -1.12839281398140
 1  15.63010704330433  2.09833936943694  0.50412873607361
 1  16.97552886798680  0.43029620022002  1.17970815751575
 1  17.29257678187819 -0.01174300510051 -0.76928830623062
 1  17.83594860196020  2.44749129692969 -0.88147113541354
 1  18.35453544964497  2.39289319621962  0.55411208170817
 1  19.80191275247525  0.56210905710571  0.53284663546355
 1  19.37888620662066  0.83411846144614 -2.48887101230123
 1  20.54583887388739  0.27249544774477 -1.93457759115912
 1  18.75849857685769 -0.24706242464246 -1.90515859055906
 1  20.67615439403940  2.23702328142814  0.87000775437544
 1  21.43954169446945  1.96039262196220 -0.21321403640364
 1  20.43096974987499  3.01119860706071 -0.35499029532953
 1  0.16877125202520 -3.53625637503750  2.99552790079008
 1 -1.37725740674067 -5.05722299599960  3.42129276587659
 1 -1.81958597189719 -2.82586106320632  3.99767392059206
 8 -11.75213358765877  3.66768156735674 -0.81768358205821
 1 -12.79215972747275  2.06686792689269 -1.31132173717372

