%nproc=4
%Mem=2GB
# td=(NStates=1) iop(3/107=0140000000,3/108=0140000000) iop(3/107=0140000000,3/108=0140000000) CAM-B3LYP/6-31G(d,p) 

TD

0 1
12 -6.54557712981298  0.78483762786279  0.16308392789279
 6 -4.38526563306331 -1.99621804360436  0.47409768676868
 6 -4.17554937033703  2.86443807690769  0.89759264086409
 6 -9.11097380208021  3.19252327642764 -0.29063856555656
 6 -9.28160625822582 -1.58982201180118 -0.55949600830083
 7 -4.64015908780878  0.48385778347835  0.68209724182418
 6 -3.91932919851985 -0.78894860166017  0.70895145054505
 6 -2.52334575317532 -0.49313107230723  1.03066512881288
 6 -2.38980894669467  1.06493664246425  1.37319948244824
 6 -3.75101136403640  1.50830091529153  1.04559933463346
 6 -2.15182146784678  1.34700649654966  2.94634919771977
 6 -1.62685143354335 -0.77920048344834 -0.23506217991799
 6 -0.15063318161816 -1.14503621022102  0.18517759125913
 6  0.73461454065407 -1.49496673357336 -0.98936711051105
 8  0.67837790589059 -1.12716532903290 -2.18580957115712
 8  1.76073636023602 -2.15496579517952 -0.44480940344034
 7 -6.63334507670767  2.80167053705371  0.26725047294729
 6 -5.53922448334833  3.46213485668567  0.62064836103610
 6 -5.98626284148415  4.90302998779878  0.78646351495150
 6 -7.37508822222222  4.94151024152415  0.59349593289329
 6 -7.79309101300130  3.64102291069107  0.18684351575158
 6 -4.95889080938094  5.95308273877388  1.01016868486849
 6 -8.24373593489349  6.18163508360836  0.55661518521852
 8 -7.72301621782178  7.24688630523052  0.69459731653165
 7 -8.78953250675067  0.84751561076108 -0.22206485558556
 6 -9.51304497689769  1.81380611591159 -0.35750680298030
 6 -10.90702733303330  1.50434030513051 -0.84594037523752
 6 -10.89096345384538  0.13352425682568 -1.05886674217422
 6 -9.59473113641364 -0.27621578477848 -0.58810088678868
 6 -12.00617739303930  2.54427062016202 -0.96808145894589
 6 -12.02913603410341 -0.74368793109311 -1.36147428112811
 6 -12.18455531763176 -0.89797196239624 -2.91172396709671
 7 -6.90092657555756 -1.35774833613361  0.04606196169617
 6 -7.99308196979698 -2.14605460216022 -0.32791598959896
 6 -7.52625021012101 -3.57588491089109 -0.38902991309131
 6 -6.20947656885689 -3.68603776467647 -0.06612487308731
 6 -5.82803909260926 -2.19311812631263  0.10754693899390
 6 -8.54251277477748 -4.70473785158516 -0.74329714561456
 6 -4.94287049154916 -4.43130892899290  0.11856988268827
 8 -4.67685943464346 -5.59875041334133  0.07493800040004
 6 -3.88347207260726 -3.40674123332333  0.45580022722272
 6 -3.34106761766177 -3.71279745524552  1.84096380938094
 8 -3.88575381548155 -4.21570830563056  2.94072274207421
 8 -1.90432210711071 -3.56811311661166  1.73338327752775
 6 -0.98069659175918 -3.93522861296130  2.85362978817882
 6  2.89373126592659 -2.49883506040604 -1.46109735383538
 6  3.97936170357036 -1.37415441654165 -1.36929246154615
 6  5.19912066746675 -1.40419729112911 -2.14457065866587
 6  5.55029901370137 -2.41859499419942 -3.24486146834683
 6  6.19691351595160 -0.35433308620862 -1.74635119361936
 6  7.32725141914191 -0.78125390749075 -1.12534927222722
 6  8.49557211751175  0.24232986758676 -0.72132061256126
 6  9.86304939433943 -0.43223014331433 -0.03961226692669
 6  9.30483800010001 -0.73344215891589  1.70682505130513
 6  10.85168749874988  0.70172502670267  0.00069490789079
 6  12.22948821932193  0.12341364856486  0.27477578877888
 6  13.44393593619362  1.06733400810081  0.37935083348335
 6  14.78715505070507  0.46021930003000  0.62321698379838
 6  15.00134512261226 -0.27022930343034  2.06047597159716
 6  15.89718934733473  1.46983188518852  0.39454265956596
 6  17.23308278637864  0.69090431483148 -0.07624449834984
 6  18.36738628602861  1.66016320752075 -0.22889303610361
 6  19.79933213431343  1.12659115391539 -0.35310539423942
 6  19.73121292259226  0.47764319461946 -1.64414020522052
 6  21.08138530743074  2.22332375037504 -0.35247034293429
 1 -3.20371100940094  3.83724497549755  0.99786918861886
 1 -10.15658964146415  3.86641572667267 -0.25496913081308
 1 -9.74282677427743 -2.04285468476848 -0.91026385228523
 1 -2.11131364816482 -1.02964058185819  2.08023807210721
 1 -1.74497383598360  1.71256173237324  0.67048350175017
 1 -0.79685106880688  1.44744305870587  3.28867957905791
 1 -2.15570374427443  2.61129970637064  3.34642075987599
 1 -2.80305263776378  0.64538242354235  3.80625649474948
 1 -2.16766578687869 -1.67799907290729 -0.51683947074707
 1 -1.62207737673767  0.15577410451045 -0.99924971577158
 1  0.59625762406241 -0.42569400270027  0.55355122032203
 1 -0.12831655145514 -2.00861719551955  1.08562879497950
 1 -4.06479100950095  5.65634346224622  0.46299125682568
 1 -5.42951323192319  6.96414909080908  0.53548045414541
 1 -5.07368839703970  5.78591755275528  2.19682745504551
 1 -9.21955496959696  6.19921503070307  0.43600722492249
 1 -12.37244679827983 -1.61932279977998 -0.95774020122012
 1 -13.17112332733273 -0.37024062426243 -1.14148178457846
 1 -13.06641446454646 -1.49674178957896 -3.14725184228423
 1 -12.03324028782878 -0.14584716321632 -3.30599276877688
 1 -11.34032085648565 -1.68902221922192 -3.34745135253525
 1 -8.91057024032403 -4.90532708830883 -1.79524175217522
 1 -8.14038925352535 -5.81999201180118 -0.48221787368737
 1 -9.55100238023802 -4.68286024722472 -0.56761215171517
 1 -3.06630621202120 -3.49484320922092 -0.16128443524352
 1  3.28905052045205 -3.23872114591459 -1.08696441354135
 1  2.60416470527053 -2.75896181118112 -2.34458469376938
 1  3.87412474017402 -0.80491323972397 -0.63985038343834
 1  5.03515657265727 -1.99851332383238 -3.89827994299430
 1  6.63854743314331 -2.43671234663466 -3.36036726062606
 1  5.06518034543454 -3.60060267456746 -2.83183736753675
 1  6.78704912681268  0.10577591499150 -2.63097571477148
 1  5.69887499689969  0.27924347214721 -1.13374763816382
 1  7.10334151305130 -1.01906010311031 -0.25588386678668
 1  7.56320171857186 -1.24356314661466 -1.60724019991999
 1  8.49448157955796  0.80800139493949 -1.56890967626763
 1  7.89641813991399  0.92173736193619  0.00104581298130
 1  10.32975542264226 -1.56745418911891 -0.72609976757676
 1  8.87259950425043 -1.63554236993699  1.52568092889289
 1  10.26247231663166 -1.23542742394239  2.49401129252925
 1  8.31188440004000 -0.10023124552455  2.31132243734373
 1  10.78826246404640  1.18191095099510 -0.97428460006001
 1  10.74837458405841  1.68009688528853  0.55517939823982
 1  12.11232877507751 -0.48577101660166  1.33089677297730
 1  12.67079923392339 -0.64160238083808 -0.69910290779078
 1  13.63638850885089  1.63288283328333 -0.59243814841484
 1  13.69920196499650  1.82937718901890  1.24946073547355
 1  14.84550597639764 -0.17330484648465 -0.19289748094809
 1  14.81542144204420  0.39228962446245  2.88773154615462
 1  14.36193346684668 -1.16455412731273  2.36688418651865
 1  15.89043607670767 -0.89495307840784  2.32186866456646
 1  15.50637177207721  2.14160415381538 -0.14916489118912
 1  15.88228226082608  1.85985552105211  1.44050237343734
 1  17.67759907500750  0.10698386898690  0.80044023072307
 1  16.83182070627063  0.10957912711271 -1.08868024542454
 1  18.32083709080908  2.40466701450145 -0.95674866316632
 1  18.99859985608561  2.57755166206621  0.51316798729873
 1  20.07624018521852  0.37463030923092  0.24256760756076
 1  19.16418473647365  1.01976702630263 -2.48000012521252
 1  20.89513380338034  0.23352155035504 -2.00877501090109
 1  19.44355708270827 -0.61889960836084 -1.52424049874988
 1  21.18946572517252  2.57313689278928  0.53981473507351
 1  22.14917265756576  1.69335591829183 -0.69637235223522
 1  20.94178083098310  2.90984847204720 -1.10317511381138
 1  0.21411578647865 -3.87712046144614  2.34235258325833
 1 -1.36987666866687 -5.08969624332433  3.28772940954095
 1 -1.12836684998500 -3.10599907700770  3.71193534673467
 8 -12.04346272057206  3.69095389458946 -0.94535634933493
 1 -12.96106661816182  2.03211445154515 -0.99959056405641

