%nproc=4
%Mem=4GB
# td=(NStates=1) iop(3/107=0140000000,3/108=0140000000) iop(3/107=0140000000,3/108=0140000000) CAM-B3LYP/6-31G(d,p) 

TD

0 1
12 -5.52196370297030  1.18616349064906  0.14876348154815
 6 -5.00399078627863 -2.07506596989699 -0.34640150695069
 6 -3.52749153825382  1.12826311111111  2.91202657595760
 6 -6.08061685738574  4.55770903510351  0.61541174997500
 6 -7.72514828192819  1.26300715141514 -2.55969364286429
 7 -4.29539379267927 -0.25668386018602  1.00142148094810
 6 -4.34143767126713 -1.61679538113811  0.68881123072307
 6 -3.24580770527053 -2.28141144394439  1.49186355005501
 6 -2.90401357235724 -1.37027991889189  2.65885244134413
 6 -3.62654008140814 -0.06845947364736  2.16052063726373
 6 -3.52577561696170 -1.85862930433043  4.01554425382538
 6 -1.98266345954595 -2.73180058935894  0.68523382888289
 6 -1.01576321982198 -3.64904248484848  1.48262185018502
 6  0.23955905640564 -3.96272011271127  0.72464065876588
 8  0.42863292759276 -3.48981629522952 -0.37819405360536
 8  0.97727457315732 -4.79718933623362  1.41175578287829
 7 -4.93965478177818  2.60786016291629  1.55019525122512
 6 -4.02701479127913  2.34020144184418  2.61717232053205
 6 -3.74890439413941  3.64917341954195  3.21388194439444
 6 -4.45598615131513  4.67424895319532  2.60328960026003
 6 -5.12080818501850  3.96431452665266  1.47905399769977
 6 -2.93482884598460  3.90123749954995  4.44615880528053
 6 -4.51994852545254  6.10415783628363  3.02389189398940
 8 -4.00054010201020  6.57558544654465  4.01213511341134
 7 -6.76367016691669  2.56998689448945 -0.77862951925193
 6 -6.86762947774777  3.91591120832083 -0.42045373407341
 6 -7.76457164356436  4.57518424322432 -1.31475558505851
 6 -8.32308176147615  3.63404033393339 -2.13527247164716
 6 -7.62225111561156  2.39344535333533 -1.75653159965997
 6 -8.17101009190919  5.97980789018902 -1.05152466126613
 6 -9.26551091439144  3.85031542974297 -3.27849248204820
 6 -8.56707816151615  4.00301844804480 -4.57413381738174
 7 -6.24904332333233 -0.07684270197020 -1.18665375737574
 6 -7.16391592119212 -0.00386645524552 -2.19351356205621
 6 -7.43206071327133 -1.32010371397140 -2.79293181578158
 6 -6.70466001480148 -2.16789636143614 -2.09711587728773
 6 -5.91411982738274 -1.37227079217922 -1.26408253865386
 6 -8.51526698449845 -1.53753387938794 -3.90934783098310
 6 -6.26853052015201 -3.53545912981298 -1.99168272337234
 8 -6.67288168366837 -4.55526322472247 -2.51591785688569
 6 -5.14579314141414 -3.55462351495149 -0.93447576737674
 6 -5.32718019541954 -4.54618005910591 -0.01980830903090
 8 -5.89641541314131 -4.43484249234923  1.14408077147715
 8 -4.91917161536154 -5.79396059245925 -0.39551269586959
 6 -5.36525408960896 -6.88364021732173  0.35962779257926
 6  2.26634760796080 -5.20670179037904  0.64852880728073
 6  3.26812134713471 -4.13605376627663  0.91582948274827
 6  3.94025341554155 -3.26225909600960  0.14901853685369
 6  3.56197053595360 -3.04748969026903 -1.29486899139914
 6  5.14579100490049 -2.51029607720772  0.71112491129113
 6  6.45916078737874 -2.92154507970797  0.14792626002600
 6  7.58534385798580 -1.92180153565357  0.68012370287029
 6  9.00955177647765 -2.14315914951495  0.06129834733473
 6  9.64413079477948 -3.45884652505251  0.24680122242224
 6  9.92506308540854 -0.94434467186719  0.51817433293329
 6  11.25528283068307 -0.84183379027903 -0.18753751995200
 6  12.22374006260626  0.27520214771477  0.19292614021402
 6  13.47031948774877  0.38880375027503 -0.56667143034303
 6  14.44090238923892 -0.67309671227123 -0.36910106100610
 6  14.28220416001600  1.72878905050505 -0.05217447224722
 6  15.43736792719272  2.22249027722772 -0.91222621762176
 6  16.02195477987799  3.59901465426543 -0.71498211141114
 6  17.13112836193620  4.11311915351535 -1.59787372257226
 6  16.78013060276027  4.28923381508151 -3.12213443764376
 6  17.76226563266327  5.41185645094509 -1.09605906480648
 1 -3.03701942474247  1.10777505290529  3.78510897929793
 1 -6.10932891169117  5.60021540194019  0.61329032073207
 1 -8.36908731593159  1.34809511241124 -3.43780925972597
 1 -3.65315638043804 -3.12432774817482  1.87172523332333
 1 -1.88997612151215 -1.13734139573957  2.82080335643564
 1 -2.84471425052505 -2.71314447564756  4.34967851185119
 1 -3.47666845954595 -1.05293519791979  4.78449047884788
 1 -4.58628113981398 -2.04617369826983  4.01929588008801
 1 -2.35292060576058 -3.13562307960796 -0.34262488628863
 1 -1.57726555895590 -1.84068318461846  0.13175129672967
 1 -0.92542797629763 -3.21843313891389  2.54602882158216
 1 -1.59419414101410 -4.68720585178518  1.71276307430743
 1 -1.80252036583658  3.68222774717472  4.24567047674767
 1 -3.00561155125512  4.84333153915391  5.00759701740174
 1 -3.23396639163916  3.15282628012801  5.23123812981298
 1 -5.18049111301130  6.70515470987099  2.36165148654865
 1 -9.94229336283628  3.01668232533253 -3.24083733543354
 1 -9.88062886078608  4.67258110221022 -3.14074436513651
 1 -9.31891169096910  4.32376079007901 -5.37862306460646
 1 -7.92739224862486  4.89872961836184 -4.38612856785679
 1 -8.19092894189419  3.09037839663966 -4.96321624642464
 1 -8.19731732133213 -1.20003054595460 -4.95250624892489
 1 -8.45493647664767 -2.62515592069207 -4.07386002300230
 1 -9.44000407990799 -1.27449427282728 -3.73768067476748
 1 -4.09581693909391 -3.96318114471447 -1.15175846274628
 1  2.37336846984698 -6.28630657365737  0.99935589248925
 1  2.13847459085909 -5.16645362146215 -0.32251570117012
 1  3.57940006230623 -3.90208949074907  2.04448945654566
 1  2.53506849354936 -3.44769039013901 -1.34292683368337
 1  3.52767738103810 -1.94567812711271 -1.53227569806981
 1  4.40468264226423 -3.61538526772677 -1.72117104300430
 1  4.94480452135213 -1.37648407240724  0.75913779727973
 1  5.19651817911791 -2.42428406080608  1.75171005130513
 1  6.54995252195219 -4.04507769986999  0.27612549654965
 1  6.47192735313531 -2.88321593059306 -0.77053764926493
 1  7.12119105040504 -0.94392771787179  0.52892013751375
 1  7.61729383228323 -1.90987757085709  1.71641602690269
 1  8.83417752705271 -2.15159343454345 -1.03717705580558
 1  9.02891741044104 -4.23501227262726  0.00055626322632
 1  10.50842018281828 -3.42552675477548 -0.57554766826683
 1  9.93561262266227 -3.86961805330533  1.24341478417842
 1  9.37743689428943  0.02473820002000  0.22676804060406
 1  10.01855195269527 -0.85029156305631  1.66795633563356
 1  11.66847198849885 -1.86883691559156 -0.25895026822682
 1  10.84154024072407 -0.70841374627463 -1.22268360196020
 1  11.55365639913991  1.23833826302630  0.00176062086209
 1  12.38008283158316  0.10961215261526  1.32478075827583
 1  13.11126792749275  0.49406383868387 -1.64323656235624
 1  15.08976831513151 -0.66188440114011  0.59822550255025
 1  13.99997556855685 -1.84019303560356 -0.46827314881488
 1  15.37458844724473 -0.56013921212121 -1.12217911041104
 1  13.40911910611061  2.47670228932893  0.15640385268527
 1  14.40051675197520  1.54282457165717  1.04733194709471
 1  16.23471512731273  1.52024063676368 -0.79106559725973
 1  14.95480106350635  1.90065397819782 -1.96222760246025
 1  15.13999540414041  4.27728310631063 -0.77632963106311
 1  16.52383515361536  3.48713535493549  0.19442934333433
 1  17.95669935133513  3.32511400260026 -1.74340341994199
 1  16.16761748214821  5.34620114901490 -3.29062142194219
 1  17.69888581208121  4.48973848714872 -3.55950055515552
 1  16.29830003020302  3.68251932193219 -3.65468350295029
 1  18.03479952715271  5.10789200670067 -0.04479281508151
 1  18.62154967726773  5.56923107530753 -1.54625153955396
 1  17.04728627952795  6.19988949204920 -1.08079214051405
 1 -5.19512481388139 -7.79877931103110 -0.21114465216522
 1 -6.39640407070707 -6.80571765836584  0.76274978247825
 1 -4.78733690229023 -6.92039361496150  1.22866732333233
 8 -7.65321291289129  6.76312281308131 -0.31182896689669
 1 -9.09857815491549  6.62195784068407 -1.54056973977398

