%nproc=4
%Mem=2GB
# td=(NStates=1) iop(3/107=0140000000,3/108=0140000000) iop(3/107=0140000000,3/108=0140000000) CAM-B3LYP/6-31G(d,p) 

TD

0 1
12 -6.76761933403340  0.56645578967897  0.16262388188819
 6 -4.50457756425642 -2.16969539133913  0.33043332033203
 6 -4.19397121252125  2.67004863796380  0.92363524512451
 6 -8.81483418811881  3.33485750985098 -0.32432193389339
 6 -9.36794489208921 -1.68972200180018 -0.56431649034903
 7 -4.60121519341934  0.32135153285329  0.67472650475047
 6 -4.00946821242124 -0.95310501730173  0.72120267566757
 6 -2.50508392699270 -0.75131689088909  1.09827188948895
 6 -2.38396836263626  0.82452260106011  1.30772293479348
 6 -3.74133039593959  1.26123620882088  0.82545732043204
 6 -2.11127741344134  1.46481827772777  2.62320688348835
 6 -1.62344109250925 -1.07260982438244  0.08527985428543
 6 -0.29273739203920 -1.33018472507251  0.43659273277328
 6  0.66907798699870 -1.43411064796480 -0.64354252805281
 8  0.61099116721672 -1.13625623812381 -1.81249223942394
 8  1.92585287188719 -1.84340463906391 -0.06832175467547
 7 -6.49356109830983  2.58094846484648  0.19079282718272
 6 -5.38767932883288  3.23795243844384  0.58776507270727
 6 -5.84248846404640  4.71667135193519  0.67696256485649
 6 -7.04837555095510  4.83759985048505  0.30720730403040
 6 -7.71177288118812  3.55194400280028  0.08249308070807
 6 -4.85460038033803  5.69788721922192  0.93851151915191
 6 -7.87045860716072  6.06114303440344  0.05256478017802
 8 -7.56836075227523  7.17673929052905  0.60652850965097
 7 -8.76766031953195  0.73948480768077 -0.35516816591659
 6 -9.52262593499350  2.04249898519852 -0.47330838313831
 6 -10.89157578787879  1.61592146324632 -0.82963874507451
 6 -11.08370272777278  0.25825673007301 -0.91447230273027
 6 -9.69079074237424 -0.28121628482848 -0.63145522222222
 6 -11.98164493979398  2.65445163826383 -0.86868151895190
 6 -12.42410553105310 -0.55560912321232 -1.23975210891089
 6 -12.44987184928493 -0.91663382858286 -2.87689048374837
 7 -7.00395687858786 -1.39967252855286 -0.16370901540154
 6 -8.06326898849885 -2.23653365006501 -0.41252445044504
 6 -7.68504608970897 -3.63771109350935 -0.61668267836784
 6 -6.35627124832483 -3.60413957485749 -0.22044030463046
 6 -5.95488177687769 -2.21323013751375  0.04464064836484
 6 -8.53318184168417 -4.91878925672567 -0.94770758665867
 6 -5.07421362586259 -4.40372617071707  0.00766879257926
 8 -4.84383613231323 -5.59856039433943 -0.20151964536454
 6 -3.89148287368737 -3.63189374857486  0.30446509370937
 6 -3.44721823272327 -3.91673784928493  1.71831154415442
 8 -3.93277851795180 -4.06213294809481  2.79718838863886
 8 -2.14338601350135 -3.82490879617962  1.71751169036904
 6 -1.48633715581558 -4.25438052815282  2.91401582678268
 6  3.14265615841584 -2.08604378127813 -1.11094233833383
 6  4.19704347174717 -1.13735073617362 -0.83396892919292
 6  5.17607836323632 -0.71918879027903 -1.68381458305831
 6  5.44468845264526 -1.60815395009501 -3.01015799799980
 6  6.30114393899390  0.30829317641764 -1.54953151165116
 6  7.40482917691769 -0.54580036213621 -0.95243198049805
 6  8.46622918321832  0.43492912751275 -0.39745822632263
 6  9.86312940234023 -0.17773469376938  0.18712040634063
 6  9.61426894319432 -0.72220103480348  1.60195456425643
 6  10.93210554055405  0.87346220042004  0.29697453585359
 6  12.35770104060406  0.21417272447245  0.77222553375338
 6  13.41873341594159  1.38233550825082  0.50413331173117
 6  14.78362469766977  0.55146842494249  0.67893255535554
 6  15.17749273737374  0.08832655215522  2.01130105410541
 6  16.06845647404741  1.26446134813481  0.15252845814581
 6  17.33683316141614  0.64302952735274  0.00430355645565
 6  18.51214076147615  1.69961715291529 -0.65869601640164
 6  19.88690089118912  0.93518201300130 -0.64411449514952
 6  20.00583038433843 -0.36433100280028 -1.76937272847285
 6  20.79966713561356  2.09868128612861 -0.98123321922192
 1 -3.68027866616662  3.21921317231723  1.27675707740774
 1 -9.70929491199120  3.99865895099510 -0.32445607950795
 1 -10.37824031563156 -2.48089848914892 -0.79843266916692
 1 -2.45843836063606 -1.23320093789379  2.13105315361536
 1 -1.77693703230323  1.15089556575658  0.61215766916692
 1 -0.84909629332933  1.27668598299830  3.09118983008301
 1 -1.94712288618862  2.50920949734973  2.66965308310831
 1 -2.78285061756176  1.26199408470847  3.44454032313231
 1 -2.17481650195019 -2.08830010301030 -0.21825961276128
 1 -1.60899606860686 -0.40145161806181 -0.68930872167217
 1 -0.00244224592459 -0.34240567386739  0.91368723392339
 1 -0.36532025182518 -2.08076441024102  0.91858209030903
 1 -4.08246277667767  5.62379020692069  0.46936189388939
 1 -5.12199247984799  6.77778045394539  0.65914282038204
 1 -4.67110813901390  5.64923388438844  2.08246601890189
 1 -8.52481549564957  5.96436154535454 -0.61600797659766
 1 -12.41615116871687 -1.66604747224722 -0.81625605280528
 1 -13.12948916391639  0.03000940074007 -0.55443307970797
 1 -13.36295411851185 -1.73106522192219 -3.22729984708471
 1 -12.62164912871287  0.02469989148915 -3.26128829832983
 1 -11.57890471487149 -1.34807812481248 -3.10001660906091
 1 -9.32436161946195 -4.58979553515351 -1.93816604460446
 1 -8.12181739633963 -5.82689270187019 -0.91272092399240
 1 -9.45598287828783 -4.88273023422342  0.07098170767077
 1 -3.16854643604360 -3.81636536143614 -0.31496980378038
 1  3.06578819421942 -3.38633590739074 -0.64579029612961
 1  2.76534082288229 -1.87734364936494 -2.14917515281528
 1  4.18011533923392 -0.60386313471347  0.02664626622662
 1  4.50448350535054 -1.63137661016102 -3.79584969997000
 1  6.06978055645565 -1.35414408980898 -4.16449767366737
 1  5.54393822122212 -2.53779639393939 -2.89968415221522
 1  6.60614103600360  1.02403774117412 -2.45553817101710
 1  6.08010311971197  1.22482803060306 -0.84091835523552
 1  7.06606778567857 -1.10626882398240  0.05173689528953
 1  7.77852325072507 -1.42665145544555 -1.66396587248725
 1  8.79199133053305  0.96715731053105 -1.73344612991299
 1  7.63665216331633  1.30210539873987  0.29124483288329
 1  10.17529997709771 -0.98902634633463 -0.27329448704870
 1  8.75453769806981 -1.21770058575858  1.59724808560856
 1  10.40474654405441 -1.49483336453645  2.10679257065707
 1  9.54029724132413 -0.15523674607461  2.22115342044204
 1  10.83081671947195  1.31018377827783 -0.67482465406541
 1  10.45135488208821  1.50341921752175  1.15082896319632
 1  12.70271781398140 -0.34613705320532  2.02484616791679
 1  12.51354350835083 -0.67511573217322 -0.33714671217122
 1  13.36090096009601  1.69894943994399 -0.50480938553855
 1  12.99781182598260  1.99172342364236  1.46583237263726
 1  14.84703612941294 -0.34763227922792  0.14094590339034
 1  15.00878077797780  1.06412680818082  2.68658143114311
 1  14.27863513701370 -0.57537520942094  2.40777827592759
 1  15.96787382048205 -0.34335791889189  2.10035651335134
 1  15.96766790169017  1.85635562896290 -0.81609158385839
 1  16.02662669526953  2.25073460896090  0.84719304250425
 1  17.48296961206120  0.10319348994899  0.49756994369437
 1  16.99375689988999 -0.18977080788079 -0.69467084448445
 1  18.17475248234824  2.12220876867687 -1.42509549784978
 1  18.42073206930693  2.18688259515952  0.10586725722572
 1  20.09029159035904  0.73604645084508  0.66452980378038
 1  20.00972929092909  0.39845489508951 -2.83359548474847
 1  21.09776406640664 -1.09656145794579 -1.55661979537954
 1  19.15288801580158 -0.99144686308631 -1.80906898159816
 1  21.21227800640064  3.14711429052905 -0.32774202060206
 1  21.56604434473448  1.47332391509151 -1.19704241924192
 1  20.73149980288029  2.33535102230223 -2.11059585588559
 1 -0.02538816391639 -4.08299104850485  2.76949529752975
 1 -1.73202288328833 -5.54511178487849  2.91689232583258
 1 -2.17387140044004 -3.38742721982198  3.84325847904790
 8 -11.75090346464646  3.79818461766177 -0.75506732043204
 1 -13.00542105360536  2.08100934103410 -0.62035264026403

