%nproc=4
%Mem=2GB
# td=(NStates=1) iop(3/107=0140000000,3/108=0140000000) iop(3/107=0140000000,3/108=0140000000) CAM-B3LYP/6-31G(d,p) 

TD

0 1
12 -6.66813938603860  0.62234137823782  0.09326694619462
 6 -4.42099920642064 -1.94182260406041  0.28008828582858
 6 -4.09557137253725  2.82027366046605  0.64774765636564
 6 -8.92550525522552  3.09401342544254 -0.01608110981098
 6 -9.35679377697770 -1.74751778137814 -0.37660771947195
 7 -4.55242031393139  0.42679207690769  0.50833986608661
 6 -3.96688395399540 -0.80803050985098  0.62684323972397
 6 -2.44047746634663 -0.56090784998500  0.96314837713771
 6 -2.50125009080908  0.93920406920692  1.14704686718672
 6 -3.86033229612961  1.31934201940194  0.79737451215122
 6 -2.17852413811381  1.29064085998600  2.56773133593359
 6 -1.58530727912791 -0.95607817121712 -0.27586626032603
 6 -0.11486960526053 -1.22772447904790  0.20608968246825
 6  0.96651773097310 -1.18581581848185 -0.83479165296530
 8  0.91714178227823 -0.81996460896090 -1.95771676187619
 8  2.00821110771077 -1.80391068966897 -0.31143606610661
 7 -6.48786052825282  2.62388275827583  0.25276902480248
 6 -5.35722628352835  3.40696934013401  0.42547884408441
 6 -5.80301451665166  4.82374205900590  0.55475034363436
 6 -7.10209092249225  4.89648573907391  0.30420700400040
 6 -7.62575427932793  3.45780458885889  0.13703853525353
 6 -4.88826374667467  5.92416984748475  0.79418708670867
 6 -8.03350491179118  6.07228414851485  0.28654817851785
 8 -7.62269618581858  7.21614323092309  0.62389024582458
 7 -8.87607116061606  0.72970382958296 -0.08434108320832
 6 -9.45386905930593  1.81991672697270 -0.11028208050805
 6 -10.90901753205321  1.36374624572457 -0.52704848604860
 6 -10.98325268276828  0.03567447184719 -0.63649450495050
 6 -9.66915857915792 -0.44700286348635 -0.30889296599660
 6 -12.02279905520552  2.48027422052205 -0.78153280408041
 6 -12.20538365886589 -0.78730229252925 -0.97799593329333
 6 -12.15208207030703 -1.05717788298830 -2.47646044074407
 7 -6.86427291019102 -1.34423698499850  0.02098945444544
 6 -8.06380904250425 -2.21162115881588 -0.04195739373937
 6 -7.51284886998700 -3.55945326772677 -0.28695970607061
 6 -6.19093471467147 -3.63015217611761 -0.18350661126113
 6 -5.85115140384038 -2.16971578607861 -0.04292810851085
 6 -8.41698022152215 -4.88051542934293 -0.67099991589159
 6 -4.95128133263326 -4.32723852195220 -0.04974694899490
 8 -4.74128587728773 -5.40756129442944 -0.49871936533653
 6 -3.83949767516752 -3.32289284848485  0.34454910211021
 6 -3.31347485838584 -3.81726790229023  1.70182989598960
 8 -3.75952119221922 -4.09291602640264  2.84257292709271
 8 -1.96370804570457 -3.81991829712971  1.56196613581358
 6 -0.90336885898590 -4.11775686578658  2.82001642684268
 6  3.00564245704570 -2.13627880478048 -1.27444868896890
 6  4.07740150755076 -1.20312731383138 -1.28228376067607
 6  5.11350210561056 -1.09246611801180 -2.19559576117612
 6  5.44856884068407 -2.12521565626563 -3.28815579777978
 6  6.14899872447245  0.12925527262726 -1.86201275977598
 6  7.26066476047605 -0.62646842894289 -0.87711444874487
 6  8.40163272357236  0.46574220882088 -0.76798527902790
 6  9.62498558795880 -0.18276519681968  0.02260395469547
 6  9.32759027532753 -0.43171198589859  1.67445181398140
 6  10.74517684768477  0.87700255445545 -0.02587774937494
 6  12.04439971047105  0.19932123932393  0.45743405460546
 6  13.18615015761576  1.08950622532253  0.14262716111611
 6  14.55433176837684  0.41647492559256  0.55775043714371
 6  14.61873686178618  0.03034075357536  2.18462838683868
 6  15.82705233363336  1.25423032503250  0.18673187848785
 6  17.21468094619462  0.64801002540254  0.35079820592059
 6  18.17883743114312  1.66675386658666 -0.32775292209221
 6  19.68563076417642  0.88691718651865 -0.26786687038704
 6  19.77200700200020 -0.34325889558956 -1.21217700890089
 6  20.79936710561056  1.92984440244024 -0.35779087498750
 1 -3.22768340664066  3.59550080108011  0.93826322802280
 1 -9.36873085558556  4.04817390249025 -0.26632026592659
 1 -10.23042553415342 -2.67335773507351 -0.52418524442444
 1 -2.29972248904890 -0.92074969276928  2.02158220652065
 1 -1.60787012561256  1.54455493169317  0.36359281268127
 1 -1.21826321002100  0.80499881428143  2.66313702480248
 1 -2.09312748664867  2.17114569096910  2.89544566236624
 1 -2.89289162166217  1.15087297259726  3.26834270337034
 1 -1.86755577587759 -1.80754202720272 -0.80908869566957
 1 -1.61651682068207  0.19290781788179 -0.91202099289929
 1  0.20222822112211 -0.25048648194819  1.15393125832583
 1 -0.01028474827483 -2.15745207900790  1.06787701980198
 1 -3.82626715711571  5.77397522542254  0.39594455215522
 1 -5.15466574717472  6.87451012691269  0.21324823092309
 1 -4.75672670087009  6.09739870087009  2.16864463676368
 1 -8.95255826992699  5.92865797499750  0.04069769396940
 1 -12.13628318191819 -1.67681854935494 -0.27105153235324
 1 -13.17467368236824 -0.23378697889789 -0.78866650305031
 1 -13.03671149424943 -1.44053616901690 -2.87549466656666
 1 -11.92257922172217 -0.04960753925392 -3.03016518601860
 1 -11.02499932433243 -1.55445876287629 -2.79845645304531
 1 -9.42541172447245 -4.51631818741874 -1.40850307830783
 1 -8.18637385198520 -5.94201421402140 -0.75094474637464
 1 -8.88608588858886 -4.72649461066107  0.34385899539954
 1 -3.18044762616262 -3.07019074397440 -0.22559086588659
 1  3.12071368676868 -3.16738401220122 -0.95630134723472
 1  2.40390467926793 -2.30307622262226 -2.14042427772777
 1  4.10664799249925 -0.29785253365336 -0.38256465486549
 1  4.59805286228623 -1.86733020552055 -4.24940505550555
 1  6.48479205760576 -1.99604828022802 -3.98714993889389
 1  5.31852567996800 -3.03390600490049 -3.04801898569857
 1  6.77950837273727  0.39139447684768 -3.10769338653865
 1  5.49874498389839  1.21027657545755 -1.21069533293329
 1  7.11917309620962 -0.84777297439744  0.24706642824282
 1  7.46874227262726 -1.96687547784779 -1.21077055295530
 1  8.52350448184818  1.16547714251425 -1.54391717701770
 1  7.73553205130513  1.02252744094409  0.06503221162116
 1  10.06598904600460 -0.95772321602160 -0.51334849244924
 1  8.59436168046805 -1.11737055275528  1.66597495829583
 1  10.29105517491749 -0.68136201740174  1.98538042944294
 1  8.85496870847085  0.19799857745775  2.19116042114211
 1  10.82596623442344  1.23461622152215 -0.93831100270027
 1  10.18450819741974  1.78798767436744  0.59380326062606
 1  11.76372391459146 -0.33812625212521  1.38893257655766
 1  12.44784693869387 -1.06164438503850 -0.34321731923192
 1  13.27750262026203  1.58447799279928 -0.92807171177118
 1  13.00336238103810  2.08800305160516  0.90140592999300
 1  14.66779820562056 -0.63080059605961  0.08514032283228
 1  15.09865976587659  1.24501489698970  2.57670044304430
 1  13.56963423692369 -0.52460013191319  3.03408090619062
 1  15.42671970507051 -0.66732031513151  2.10518699639964
 1  15.95257639253925  1.78459845324532 -1.05430540524052
 1  15.64534856745675  1.98241777727773  0.92898122132213
 1  17.71904321942194  0.40805397599760  1.20799098579858
 1  17.32174969916992 -0.29316114691469 -0.10759213661366
 1  18.08385339243925  1.76688323612361 -1.66095908420842
 1  18.03249324542454  2.53557746464646  0.30518718921892
 1  19.45741830303031  0.32240508670867  1.02736608740874
 1  19.73209152715271  0.11830688028803 -2.61904402960296
 1  20.79165345534553 -0.76112791459146 -1.24842897629763
 1  19.20915364236424 -1.14241195959596 -1.14540261496150
 1  20.56439321792179  2.78031761086109  0.40543129672967
 1  21.67649538983898  1.19719630233023 -0.22313502850285
 1  20.60325697859786  2.59454694189419 -1.45031982828283
 1 -0.13086871197120 -4.38305105450545  2.25750409840984
 1 -1.66952663366337 -4.66406368006801  3.75032566916692
 1 -0.33162717601760 -3.49610808790879  3.37404155735574
 8 -11.69908828312831  3.70435523472347 -1.00410222392239
 1 -13.01556206770677  1.95943718381838 -0.89938054305430

