%nproc=4
%Mem=2GB
# td=(NStates=1) iop(3/107=0140000000,3/108=0140000000) iop(3/107=0140000000,3/108=0140000000) CAM-B3LYP/6-31G(d,p) 

TD

0 1
12 -6.84188676077608  0.58190733483348  0.13065068456846
 6 -4.57493459996000 -2.06869529132913  0.46552682968297
 6 -4.28172998839884  2.73735536863686  1.01355423702370
 6 -9.07099980468047  3.16841086518652 -0.20517001870187
 6 -9.27104520212021 -1.72236526612661 -0.62658271697170
 7 -4.81391646354635  0.37669706740674  0.78629766186619
 6 -4.06311357695770 -0.89161886868687  0.67845840124012
 6 -2.49530294889489 -0.55146690589059  0.88289035133513
 6 -2.48663862966297  0.99462961176118  1.19076123862386
 6 -4.02249851275128  1.35895598079808  1.08397317201720
 6 -2.18365465116512  1.39446124202420  2.87474203700370
 6 -1.57744649304931 -0.78148071147115 -0.20194886858686
 6 -0.12595071337134 -1.05385709230923  0.35770484398440
 6  0.78493957315732 -1.04201143804380 -0.81200937473747
 8  0.77793786188619 -0.80812342484248 -1.97213820402040
 8  1.87365765236524 -1.90222052065207 -0.41326624912491
 7 -6.69291103330333  2.61512188218822  0.41859560746075
 6 -5.51106166706671  3.23215185838584  0.64721101730173
 6 -5.81151536673667  4.68856854165417  0.57731259985999
 6 -7.16051676507651  4.92293838433843  0.27425400870087
 6 -7.80630233413341  3.40101891029103  0.13874870627063
 6 -4.73385830613061  5.83740117061706  0.93265093309331
 6 -8.05425698699870  5.93235015511551  0.06076560026003
 8 -7.48854277047705  7.07213883048305  0.02029988678868
 7 -8.83213676717672  0.72178303750375 -0.26578922802280
 6 -9.59545321772177  1.89711444674467 -0.45372642494249
 6 -10.92315894619462  1.50354022512251 -0.71379716091609
 6 -10.89463382088209  0.14208511291129 -0.92896375187519
 6 -9.59785144844484 -0.43105126832683 -0.61450352705271
 6 -11.88484525982598  2.56359255235524 -1.09480413121312
 6 -12.07503062356236 -0.69062262456246 -1.08886702040204
 6 -12.36983384548455 -0.76146831203120 -2.56797959265927
 7 -6.99159564246425 -1.37950051135113 -0.11513415791579
 6 -8.14352701430143 -2.27684768146815 -0.36374957295730
 6 -7.58720630573057 -3.54692201460146 -0.45150616071607
 6 -6.20649627082708 -3.60114927582758 -0.08068632923292
 6 -5.87899418811881 -2.18764757925793  0.06123230753075
 6 -8.40074859835984 -4.81021839963996 -0.62535535143514
 6 -5.11102730723072 -4.37093289138914  0.15419344504450
 8 -4.93595534423442 -5.64575511381138  0.15241574817482
 6 -3.82953667906791 -3.47802836203620  0.32216686388639
 6 -3.26673018391839 -3.78721489698970  1.68474818781878
 8 -3.84138937903790 -4.04250098489849  2.69610828062806
 8 -1.86057773267327 -3.76752305760576  1.41541148034803
 6 -1.15138366046605 -4.09779486958696  2.51736616181618
 6  2.97668956175618 -2.10110528742874 -1.39093033713371
 6  4.08646241364136 -1.08001500260026 -0.96669220152015
 6  5.10741149654965 -0.76384325572557 -1.66951315291529
 6  5.40139412321232 -1.45999913461346 -2.97844482668267
 6  6.26951077567757  0.23893624072407 -1.32377893639364
 6  7.35785447944795 -0.50154593669367 -0.62990972827283
 6  8.56152871317132  0.35998163276328 -0.23544202470247
 6  9.74515760516052 -0.20200712101210  0.21351304560456
 6  9.62143966026603 -0.82855166986699  1.65169953875388
 6  11.00654298429843  0.74152900710071  0.06877171557156
 6  12.26054132463246 -0.01683037583758  0.30987929912991
 6  13.48103964656466  0.90216749144914  0.63666656505651
 6  14.71309764496450  0.11241451955195  0.64966962906291
 6  14.92748773687369 -0.44453673417342  1.77255717971797
 6  15.99832946134613  1.28243314531453  0.33674687998800
 6  17.37234671277128  0.58791401580158 -0.02888976287629
 6  18.29969951735174  1.73389058025803 -0.43897404420442
 6  19.80544274537454  0.87212570737074 -0.66826691039104
 6  20.03986378767877  0.10318574887489 -1.82898869006901
 6  20.76947411631163  2.12996441444144 -0.58133322922292
 1 -3.66967760606061  3.27956920792079  1.24003340504050
 1 -9.67726170867087  3.91779086418642 -0.55480911481148
 1 -10.19095158675868 -2.30261066036604 -0.64276710261026
 1 -2.09830234703470 -0.93306092389239  1.93261330963096
 1 -1.71886122472247  1.44940541674167  0.45482193559356
 1 -1.20173155685569  0.77560587498750  3.46155686678668
 1 -1.70368854275428  2.63787236363636  2.89819593739374
 1 -3.14426675917592  1.47031491679168  3.62910877997800
 1 -1.69946896719672 -2.10234150715072 -0.69706749354935
 1 -1.59322449144915  0.02958148524853 -1.01085087588759
 1  0.15396339463946 -0.27300873417342  1.07593345854585
 1 -0.11460518031803 -2.01447778157816  0.95396562866287
 1 -3.76728125852585  6.11162899079908  0.12238719641964
 1 -5.41039131973197  6.76581925782578  0.76641354745475
 1 -4.20796182438244  5.71431039203920  1.99710748304830
 1 -9.06692970707071  5.73080819001900 -0.10862723852385
 1 -11.94102365596560 -1.77966883438344 -0.67873230043004
 1 -12.80519673467347 -0.10076367656766 -0.65162279867987
 1 -13.22305012811281 -1.19809192459246 -2.83390050715071
 1 -12.60813777757776  0.07505492699270 -3.18300046954696
 1 -11.28138496289629 -1.16920023702370 -3.19668627602760
 1 -8.27718690199020 -5.13499005460546 -1.74838706670667
 1 -7.52452766736674 -5.65448546114612 -0.38974862676268
 1 -9.27584486448645 -4.71369333053305 -0.31753714421442
 1 -2.98759834123412 -3.46548027292729 -0.58890719751975
 1  3.51555317071707 -3.11963923772377 -1.20092580968097
 1  2.69346363516352 -1.65044095909591 -2.45167540284028
 1  3.91348867656766 -0.48841158955896  0.12914651625163
 1  4.28919197619762 -1.31870534303430 -3.33709382438244
 1  6.46053963236324 -1.01784045944594 -3.63021424532453
 1  5.51089491689169 -2.92029464376438 -2.78258244204420
 1  6.58929935183518  0.83921925932593 -2.36399901710171
 1  5.97649275867587  1.24249979777978 -0.51312557595760
 1  6.57061824072407 -1.07355555265526  0.02567428902890
 1  7.75741113951395 -1.04220301060106 -1.12249172507251
 1  8.63257538893889  0.78560915571557 -1.38229101440144
 1  8.17834633273327  0.75795098329833  0.64741044944495
 1  9.68609105620562 -0.70365780948095 -0.70926808440844
 1  8.76781902620262 -1.73820263596360  1.94571293209321
 1  10.37755382478248 -1.18103198439844  1.86755864726473
 1  9.83593680528053 -0.08061928432843  2.34810611571157
 1  11.26952058985898  1.26937969786979 -0.62778995059506
 1  11.01487123372337  1.23226210181018  0.81561544184418
 1  12.05958350055005 -0.87408984848485  1.21268495179518
 1  12.49966212021202 -0.84436265686569 -0.73643664116412
 1  13.67655252525253  1.91221076607661 -0.13131203580358
 1  13.22810485528553  1.36779103040304  1.61455724512451
 1  14.62559398519852 -0.49321683768377 -0.21782997419742
 1  14.66317621752175  0.44525492099210  2.47718049104911
 1  14.10329760326032 -1.15218289018902  2.11353885198520
 1  15.71512854595460 -0.80937452055205  1.76357283498350
 1  15.47144827972797  1.60799079247925 -0.63963393809381
 1  15.86813084568457  1.94536407190719  0.96013433663366
 1  17.46706802190219  0.04554772537254  0.94805499219922
 1  17.60297782198220  0.03074124332433 -0.80638201560156
 1  18.39565457255726  2.01696824462446 -1.51207419571957
 1  18.38253824992499  2.48396230313031  0.42320899139914
 1  20.09253181438144  0.36904975117512  0.42269562036204
 1  19.78766708470847  0.85070011961196 -2.56926905210521
 1  21.28903319331933 -0.48322012381238 -1.68161229462946
 1  19.19749247624762 -0.58728644704470 -1.93993206790679
 1  20.76694347294729  2.57794737383738  0.36352710631063
 1  21.67014475477548  2.03986056875688 -0.68349106410641
 1  20.72858951185118  3.01376886408641 -1.06950174647465
 1 -0.19012463756376 -4.40605335473547  1.96256460446045
 1 -1.60690037103710 -4.66671394509451  2.87640827742774
 1 -1.09905391869187 -3.09767824492449  3.03559771297130
 8 -11.90184855915592  3.61082588178818 -0.65525733943394
 1 -12.82816332783278  1.93725496559656 -1.61239184418442

