%nproc=4
%Mem=2GB
# td=(NStates=1) iop(3/107=0140000000,3/108=0140000000) iop(3/107=0140000000,3/108=0140000000) CAM-B3LYP/6-31G(d,p) 

TD

0 1
12 -6.77023959605961  0.61161030513051  0.07161478097810
 6 -4.51781888838884 -1.89710813261326  0.58932920992099
 6 -4.49307112251225  2.83284491759176  1.26481936353635
 6 -9.06667937263726  3.27735175927593 -0.42489199089909
 6 -9.21147924552455 -1.61827485708571 -0.87406746544654
 7 -4.83947901980198  0.37711710941094  0.60586961906191
 6 -3.98353561916192 -0.79782948974898  0.89340989638964
 6 -2.62711613021302 -0.46128788798880  1.21573363566357
 6 -2.60789075487549  1.06728687748775  1.50378254075408
 6 -3.99740600350035  1.54291437663766  0.98056283098310
 6 -2.60982726842684  1.32854465036504  2.94329889268927
 6 -1.61973072147215 -0.86776934033403  0.12911423772377
 6 -0.30547866616662 -1.06600830743074  0.50996006950695
 6  0.78782986218622 -1.16771400830083 -0.62984115791579
 8  0.67597766586659 -0.70442305480548 -1.77937892809281
 8  1.88150843744374 -1.76978727732773 -0.07461238373837
 7 -6.82405414761476  2.58323869386939  0.39763351125113
 6 -5.67668822972297  3.43932257545755  0.92358865506551
 6 -5.96187040224022  4.82377206200620  0.77906277487749
 6 -7.28914962836284  4.99623571407141  0.42889947324732
 6 -7.79013071697170  3.57295610401040  0.10561539293929
 6 -5.26160108040804  5.86568399889989  1.34000166816682
 6 -8.21112267356736  6.05159207930793  0.29667919161916
 8 -7.77101101730173  7.18531014761476  0.44999285608561
 7 -8.70302385588559  0.79412027122712 -0.36165881498150
 6 -9.46819049144915  1.89506424172417 -0.41034208650865
 6 -10.85428205850585  1.61122099319932 -0.91913769496950
 6 -10.91251560906091  0.16084698909891 -1.02747360286029
 6 -9.48951061436144 -0.33044120732073 -0.63331540824082
 6 -11.86033280858086  2.54547074017402 -1.31006565736574
 6 -12.00216333683368 -0.67441100340034 -1.57798593229323
 6 -11.77887474957496 -1.43903606880688 -3.08209100380038
 7 -6.92311879477948 -1.37129969126913 -0.12713535803580
 6 -7.95937859945994 -2.17526752345235 -0.43288648664866
 6 -7.48729631473147 -3.64844216661666 -0.51425243534353
 6 -6.02646826802680 -3.72278143904390 -0.16275453605361
 6 -5.77386367506751 -2.23713252775278  0.04292047634763
 6 -8.42172069556956 -4.76620399819982 -0.87487030293029
 6 -4.98125432993299 -4.49962576067607 -0.07995997029703
 8 -4.66825857455746 -5.58166870517052 -0.16389588298830
 6 -3.85192891829183 -3.33732429162916  0.56716136333633
 6 -3.40516402730273 -3.69543571907191  1.96766647964797
 8 -3.84992023212321 -3.98016475127513  3.03731240104010
 8 -1.94770644554455 -3.71375768106811  1.88396833603360
 6 -1.28482700480048 -3.99152424252425  2.99004342954295
 6  3.01129302210221 -2.16310148704870 -1.22070331443144
 6  4.19118288568857 -1.30542754385439 -1.04306983928393
 6  5.15637639303930 -1.08126499789979 -1.84202040364036
 6  5.27172115591559 -1.87759089378938 -3.06832381458146
 6  6.11657548214822 -0.00651830473047 -1.58960551905191
 6  7.56099479347935 -0.87907368946895 -0.81276801410141
 6  8.55650821112111  0.17956359095910 -0.59016749724973
 6  9.81850493989399 -0.42945986628663 -0.06453475917592
 6  9.75324284058406 -1.07101591629163  1.21054542334233
 6  11.09544187418742  0.59932478667867 -0.07098225982598
 6  12.40944621512151 -0.03731242404240  0.12922123332333
 6  13.48870041264126  1.03763103780378  0.33501640004000
 6  14.86510284548455  0.30569384748475  0.39147380948095
 6  14.91118610671067 -0.62122440294029  1.79412933693369
 6  16.01064069246925  1.07783268526853  0.09761296659666
 6  17.44409388748875  0.60433565796580 -0.03466033993399
 6  18.24631417881788  1.84196138733873 -0.44857500430043
 6  19.79210141124112  1.23480197499750 -0.47502758645865
 6  19.89509931123112  0.49906533683368 -1.87696348754876
 6  20.88988615751575  2.29201061906191 -0.42410750665066
 1 -3.71492213051305  3.60713196419642  1.52254165586559
 1 -9.74322830533053  4.07857694279428 -0.89711334523452
 1 -10.17570006160616 -2.30699109840984 -1.03636646254625
 1 -2.17362987978798 -1.18272589038904  2.26070611891189
 1 -1.95904524312431  1.30681115731573  1.23974042744274
 1 -1.62898428212821  1.25348366276628  3.39033974507451
 1 -3.14910308420842  2.28539711611161  3.43454957275728
 1 -3.13923625612561  0.47253513881388  3.86297216631663
 1 -2.01308032833283 -1.75702697569757 -0.47028481528153
 1 -1.93089825882588 -0.22918439133913 -0.52614240504050
 1 -0.16976897859786 -0.07150858415842  0.99917578277828
 1 -0.30114383418342 -1.95426175997600  1.03295352745275
 1 -4.18951348174817  5.69765759365937  0.80436539423942
 1 -5.82010229082908  6.67955063096310  1.32012891899190
 1 -4.81402243044304  5.77393635463546  2.20794856715672
 1 -9.54727774187419  5.94466957615762  0.47745136933693
 1 -12.13673322692269 -1.50068093559356 -0.83964839203920
 1 -12.99213542854285 -0.08264186438644 -1.78589622602260
 1 -12.36108393149315 -2.12479459485948 -3.45737285438544
 1 -11.90966793059306 -0.55332791129113 -3.56481865136514
 1 -10.88785560996100 -1.87371068806881 -2.83526013341334
 1 -8.83363254655466 -4.61613816941694 -2.06979920792079
 1 -7.69212442704270 -5.63327333993399 -0.72451210311031
 1 -9.50440772077208 -4.88017997919792 -0.24662005250525
 1 -3.00658023942394 -3.56660038493849 -0.14164247104710
 1  3.11840345574557 -3.39760703450345 -0.81135685278528
 1  2.40194448324832 -2.21912782778278 -2.18788902420242
 1  4.39398672637264 -0.67666041444144  0.05053865546555
 1  4.38075113211321 -1.59374284678468 -3.70273038803880
 1  5.92558613701370 -1.50612928832883 -3.59311053495350
 1  5.13514734213421 -2.82443505780578 -2.95217940174017
 1  6.46461688358836  0.62065740314031 -2.82990560776078
 1  5.41381649104910  0.99187473527353 -0.73639790319032
 1  7.33559473837384 -1.53999219631963  0.18400012161216
 1  8.12174757315732 -1.78716750705070 -1.33239271517152
 1  8.51000313171317  0.81850244504451 -1.35356814211421
 1  7.84209270737074  0.63135832403240 -0.06310060166017
 1  9.83240568766877 -1.04624206790679 -0.88299545714572
 1  8.83450569486949 -1.70612942864286  1.12534089488949
 1  10.83794986438644 -1.11252513371337  1.75579747114711
 1  9.55588880048005 -0.54035525792579  2.14711601670167
 1  11.06041967976798  0.84373713361336 -1.22878004960496
 1  10.74242398899890  1.35247412301230  0.66759063936394
 1  12.18369591179118 -0.99773221272127  0.95549923322332
 1  12.79815196919692 -0.75360358095810 -0.56475947344734
 1  13.47908277827783  1.54012355735574 -0.38435734033403
 1  13.40568261306131  1.52569682098210  1.06171196059606
 1  14.91612303810381 -0.42122963896390 -0.33833202440244
 1  14.14941484138414 -0.19921952645265  2.80981375437544
 1  14.08292556605660 -1.28111578347835  1.54949244734473
 1  16.26678371147115 -0.93423700680068  2.01117759545955
 1  16.09850098499850  1.62752274567457 -0.46457643234323
 1  16.14598863146315  1.67337687318732  1.02454077727773
 1  17.69780109520952  0.15670884148415  0.90596078277828
 1  17.60762828702870 -0.01206303710371 -0.87316869426943
 1  18.12643765086509  2.70324687248725 -1.21195418371837
 1  18.36836683278328  2.39867377427743  0.35166183668367
 1  20.09197175837584  0.42049489568957  0.22350570137014
 1  19.39771808980898  1.10367541714172 -2.71327345254525
 1  20.85198948894890 -0.11614341614161 -2.14210834423442
 1  19.32419514651465 -0.24924264266427 -1.82033010771077
 1  21.15522230083008  2.77131671077108  0.48045879947995
 1  21.94932267256726  1.58527511021102 -0.91595431043104
 1  20.67309396229623  2.92595008220822 -1.05817061336134
 1  0.00342471737174 -4.46950970037004  2.79793814181418
 1 -1.74270395139514 -4.82014928862886  3.58927956455646
 1 -0.93765777907791 -3.09346782388239  3.65758991219122
 8 -11.61883025732573  3.71173597279728 -1.03875568926893
 1 -12.92239275077508  2.20589182928293 -1.76141674667467

