%nproc=4
%Mem=4GB
# td=(NStates=1) iop(3/107=0140000000,3/108=0140000000) iop(3/107=0140000000,3/108=0140000000) CAM-B3LYP/6-31G(d,p) 

TD

0 1
12 -5.66657816441644  1.29474434873487  0.21143974917492
 6 -4.99441982918292 -2.13229169246925 -0.37897476427643
 6 -3.43540232933293  1.18931921672167  2.80604597789779
 6 -6.15836463216322  4.61767503170317  0.67574778357836
 6 -7.93381914901490  1.13236408710871 -2.35016268976898
 7 -4.45769002230223 -0.20131832363236  1.12566390519052
 6 -4.25184871237124 -1.59411311291129  0.63270562016202
 6 -3.19987311181118 -2.22251555435544  1.46417078077808
 6 -2.87385055605561 -1.28632152305231  2.56356291239124
 6 -3.60740816821682 -0.02947557525753  2.16795138033803
 6 -3.50552359175918 -1.85370881228123  3.97608030743074
 6 -1.94358955215522 -2.70124753405341  0.64519982548255
 6 -0.90120176367637 -3.58430601120112  1.37233082108211
 6  0.29750485098510 -3.93771761246125  0.52648084278428
 8  0.49949001330133 -3.51782909650965 -0.55459169336934
 8  1.06636348204820 -4.78299791709171  1.13666827412741
 7 -4.88674949124912  2.64324370127013  1.54154438613861
 6 -3.93222531233123  2.44933235493549  2.48166877017702
 6 -3.75124462816282  3.62975147734773  3.19124968116812
 6 -4.44749530223022  4.66810833913391  2.47093636493649
 6 -5.20604670887089  4.04469256445645  1.49998609090909
 6 -2.71720708380838  3.76766414221422  4.28231242064206
 6 -4.44234076467647  6.12030945144514  2.77498700350035
 8 -3.88513856185619  6.62475036303630  3.83951785168517
 7 -6.88849264916492  2.56302619841984 -0.69351100740074
 6 -6.89064177897790  3.85075469266927 -0.37745943464346
 6 -7.76118130453045  4.61872859765977 -1.26205031453145
 6 -8.44656410971097  3.61115804570457 -2.04228317271727
 6 -7.82478136863686  2.42791880068007 -1.69009495599560
 6 -8.23609660056006  5.96449635903590 -1.12806231503150
 6 -9.43156752005201  3.78926932513251 -3.09703433623362
 6 -8.82191364506451  4.07506565276528 -4.48537494149415
 7 -6.32499091809181 -0.16573159085909 -1.13961905390539
 6 -7.40440997059706 -0.04895096369637 -2.05128933963396
 6 -7.59532703990399 -1.40032173577358 -2.75726824942494
 6 -6.65976552535253 -2.23239281108111 -2.10621678737874
 6 -6.02239065446545 -1.47720128522852 -1.08652478287829
 6 -8.49836529432943 -1.64267439343934 -3.91145804200420
 6 -6.17535120222022 -3.62907849174917 -2.01339489458946
 8 -6.45247964346435 -4.62478017641764 -2.72745901100110
 6 -5.01399996209621 -3.62548060066007 -0.85836815661566
 6 -5.43343082048205 -4.60628606970697  0.12744641644164
 8 -5.86202197379738 -4.41926093419342  1.26804316771677
 8 -5.13279297749775 -5.89873106950695 -0.24810795539554
 6 -5.47260482468247 -6.92596444974498  0.74448627842784
 6  2.30015098829883 -5.14190531073107  0.54660861526153
 6  3.39451398639864 -4.26488664956496  0.90058795859586
 6  4.02509189938994 -3.27173004310431  0.10185382038204
 6  3.58705304420442 -3.03875881718172 -1.41301080558056
 6  5.07123354915492 -2.33352840044004  0.69298309710971
 6  6.52595746704670 -2.68783170837084  0.04050551795180
 6  7.57088241184118 -1.76816617211721  0.57153284378438
 6  9.10049087038704 -1.95968080168017  0.05289750725073
 6  9.58866524822482 -3.33186382678268  0.18901544384438
 6  9.99811039013901 -0.79556979437944  0.54962747824782
 6  11.28885618801880 -0.87583719061906 -0.13898266446645
 6  12.21483917251725  0.35861048854885  0.23136998459846
 6  13.51047350315031  0.53685855575558 -0.53512827602760
 6  14.49018731773177 -0.73229263186319 -0.45820997189719
 6  14.18544448404840  1.81063723532353 -0.26928618341834
 6  15.49335352575257  2.09934796299630 -1.07105210021002
 6  16.03827641204120  3.45003975677568 -0.56102671587159
 6  17.26544179327933  3.86732457405741 -1.37205114031403
 6  17.01802439213921  4.19532442414241 -2.82757498169817
 6  17.85349475557556  5.16667193249325 -0.60853031193119
 1 -2.86238196099610  1.29825410081008  3.85332580098010
 1 -6.52973095189519  5.62428780918092  0.69032802450245
 1 -8.62535294249425  1.29418972187219 -3.24797027582758
 1 -3.62261332613261 -3.15713102850285  1.83970203100310
 1 -1.79077620152015 -1.07319498109811  2.74726600270027
 1 -3.01709148824882 -2.90217337853785  4.10854439843984
 1 -3.47935872857286 -1.18045795019502  4.91051308110811
 1 -4.57279979167917 -1.99161824272427  3.70410436093609
 1 -2.19676499019902 -3.28517803510351 -0.27426805060506
 1 -1.34131196359636 -1.91335045134513  0.28261638323832
 1 -0.59681511501150 -3.01404269986999  2.27165138383838
 1 -1.37700242184218 -4.46510364156416  1.62475427342734
 1 -1.73790390419042  3.41170069446945  4.00513642334233
 1 -2.70901189128913  4.64642184818482  4.76165242294230
 1 -3.02099509450945  3.15557655515552  5.04406941294129
 1 -4.89100216411641  6.82997719211921  1.96947226862686
 1 -10.22984211771177  2.97476813391339 -3.34580783248325
 1 -10.11773257115712  4.73573741784178 -2.76146643734374
 1 -9.67584738453845  4.43765217921792 -5.22563776607661
 1 -8.06749625902590  4.89802954835484 -4.49840979597960
 1 -8.31164101310131  3.25265462426243 -4.81150107490749
 1 -7.95073266286629 -1.10663120602060 -4.64287528582858
 1 -8.61448243124313 -2.53774717981798 -4.16633927092709
 1 -9.51698177767777 -1.36395321872187 -3.78759566626663
 1 -4.09528688608861 -3.72239706630663 -1.34912819971997
 1  2.51924305730573 -6.21419936293629  0.80286624352435
 1  2.19264000740074 -5.33381035713571 -0.53183663326333
 1  3.70291241354135 -4.17073635543554  1.94573958155816
 1  2.57427241394139 -3.37590321142114 -1.63225576657666
 1  3.95693030633063 -2.20367392669267 -2.02356482698270
 1  4.01587376137614 -3.94385811501150 -1.91342026792679
 1  5.03698373927393 -1.30405682968297  0.52373425692569
 1  5.25073360066007 -2.50424205660566  1.72525740604060
 1  6.65150267696770 -3.68816200830083  0.20406829082908
 1  6.45513567396740 -2.54621223022302 -1.01849244474447
 1  7.32211114241424 -0.84821814691469  0.63003024852485
 1  7.86801890479048 -2.25843242634263  1.50659504480448
 1  8.99784389368937 -1.75652392759276 -0.99059239733973
 1  8.96587110581058 -4.03626239763976 -0.29117290969097
 1  10.44180352115212 -3.43870807290729 -0.36652676617662
 1  9.94572363376338 -3.58562965446545  1.34490493319332
 1  9.28561771237124 -0.16711098489849  0.24332969676968
 1  10.22889298679868 -1.01891842574257  1.62131167116712
 1  11.78814395569557 -2.07057708960896 -0.11886625982598
 1  11.13445953265327 -0.73146605150515 -1.05245657925793
 1  11.57852888638864  1.12296672587259 -0.02168172337234
 1  12.33719854315432  0.38113930533053  1.10874915511551
 1  13.24672147284728  0.39059349164917 -1.66230846954695
 1  14.74601393969397 -0.74450266296630  0.61741742174217
 1  14.10313588458846 -1.67856687298730 -0.72682900440044
 1  15.35739672807281 -0.49088228642864 -1.00113700620062
 1  13.45883407760776  2.57142176127613 -0.65567735543554
 1  14.34536123642364  1.49709999919992  0.84121133503350
 1  16.10361201700170  1.24910352305231 -1.16434292499250
 1  15.04709029242924  2.04946885968597 -2.21485286498650
 1  15.16352775737574  4.30668604660466 -0.69529152725273
 1  16.23569633973397  3.45899254065406  0.53988388878888
 1  18.07859154055405  3.12156364756476 -1.42659173877388
 1  16.19038975937594  5.11954848374838 -2.95524788458846
 1  17.99004492799280  4.44908442174217 -3.61625623072307
 1  16.50466066626663  3.37980905090509 -3.22868090269027
 1  18.13891993919392  5.03254447194719  0.45202686688669
 1  18.75759328162816  5.46455060726073 -1.14065097949795
 1  17.11623317421742  5.83830333343334 -0.65701976327633
 1 -5.54947024842484 -7.87286671977198  0.01611807410741
 1 -6.31118554885489 -6.64265135173517  1.05423893139314
 1 -4.89045721432143 -6.78195977157716  1.69938439503950
 8 -7.73542113371337  6.78156465726573 -0.36734451845185
 1 -9.06134443154315  6.38822446734673 -1.85446112891289

