%nproc=4
%Mem=2GB
# td=(NStates=1) iop(3/107=0140000000,3/108=0140000000) iop(3/107=0140000000,3/108=0140000000) CAM-B3LYP/6-31G(d,p) 

TD

0 1
12 -6.70338291039104  0.59895904000400  0.02035965546555
 6 -4.56739384588459 -1.97333575537554  0.47207748474848
 6 -4.32678449384938  2.75862749584958  0.75688857045705
 6 -8.94940764546455  3.16141016511651 -0.13935343704370
 6 -9.44006210381038 -1.72248527812781 -0.66511657035704
 7 -4.66202127402740  0.43771316901690  0.41028006010601
 6 -3.92796006160616 -0.80224993179318  0.57978853425343
 6 -2.45109852845285 -0.55222698189819  0.94406646894689
 6 -2.41419138493849  1.00018016681668  1.19700186268627
 6 -4.01750801370137  1.53155324052405  0.88475325002500
 6 -2.07263354905491  1.32258405430543  2.63262782558256
 6 -1.69512826122612 -1.10509307270727 -0.29065773947395
 6 -0.19359747804780 -1.44599630623062  0.33503257675768
 6  0.82135321452145 -1.38409564646465 -0.83447162096210
 8  0.73775384348435 -0.75484809730973 -1.85447643784378
 8  1.73870415701570 -2.16930722932293 -0.54796971947195
 7 -6.78944068626863  2.53009337933793  0.18533228112811
 6 -5.55939650055006  3.21967061026103  0.48249454565457
 6 -5.79356357155716  4.75659534433443  0.64828969756976
 6 -7.18416913031303  4.80243633413341  0.44174075737574
 6 -7.74020572447245  3.47294610301030  0.08336316771677
 6 -4.86235115541554  5.75636306680668  1.10881854985499
 6 -7.71884344564456  6.10120704080408  0.15246477017702
 8 -7.28274219041904  7.20348196479648  0.33923177997800
 7 -8.67642119561956  0.64100495969597 -0.29800244934493
 6 -9.48112178457846  1.84401913721372 -0.35020607290729
 6 -10.79730636093609  1.53239311041104 -0.84947072827283
 6 -10.99243360086009  0.15703660806081 -0.86580743624362
 6 -9.56293795709571 -0.35104326752675 -0.65193727042704
 6 -11.86792356765677  2.48701489458946 -0.98087273807381
 6 -12.17719083958396 -0.52282584488449 -1.09634776847685
 6 -12.37384424652465 -0.79755192039204 -2.59421221592159
 7 -7.06171265416542 -1.32072463376338 -0.26731937643764
 6 -8.14231689328933 -2.26745674237424 -0.43342654065407
 6 -7.51872945804581 -3.64929225162516 -0.34937594769477
 6 -6.25976159735974 -3.58273743464346 -0.14728298889889
 6 -5.97746403510351 -2.16780559505951  0.05056124042404
 6 -8.34430295379538 -4.74116149394940 -0.65540835673567
 6 -5.12797900240024 -4.42511830993099  0.03833185888589
 8 -5.03811556025603 -5.63820435873587  0.02581308790879
 6 -3.91354507990799 -3.29757031623162  0.41094574177418
 6 -3.40743425432543 -3.65848202370237  1.83834354735474
 8 -4.08740398049805 -3.79271600640064  2.87361603140314
 8 -1.97131880678068 -3.81702800810081  1.55623556275628
 6 -1.19763828592859 -4.11289637973797  2.85487991319132
 6  2.95328722152215 -2.20251542844284 -1.43480472457246
 6  4.03471723912391 -1.37031403250325 -0.87748328062806
 6  5.14306506190619 -0.82222909430943 -1.53988018961896
 6  5.43030701450145 -1.24639777447745 -2.97995497769777
 6  6.25928975357536 -0.00178783168317 -0.95322188068807
 6  7.49709840384038 -0.86636241834183 -0.77539427672767
 6  8.34136669696970  0.33900953555356 -0.20589907040704
 6  9.73794688408841 -0.36420334063406  0.23323501780178
 6  9.66396391269127 -1.25091390609061  1.69250361916192
 6  10.96799912991299  0.59638449264927  0.29930476887689
 6  12.37550282078208 -0.14413310611061  0.42946125732573
 6  13.49975151775178  0.87409468416842  0.24854775317532
 6  14.83463979917992  0.22182546064606  0.50776543864386
 6  15.10530551865187 -0.20281256175618  1.87014693869387
 6  15.96511614001400  1.19737463946395  0.23011621692169
 6  17.35913539163916  0.79222444684468  0.04795792189219
 6  18.29109865726573  1.87937512871287 -0.47633778057806
 6  19.71162336343634  1.26690518531853 -0.54313439713971
 6  19.90806060736074  0.38951438173817 -1.77384317551755
 6  20.77404457335734  2.45797721572157 -0.68789388528853
 1 -3.47894853315332  3.33035428642864  1.19678908060806
 1 -10.01486546904690  3.88749783488349 -0.08495212911291
 1 -10.04854734633463 -2.42856325562556 -0.61572439833983
 1 -2.34406692349235 -1.10859847764776  1.76104615291529
 1 -1.91707104570457  1.47261773797380  0.42557901130113
 1 -1.08188957265727  0.88499681408141  2.74657536863687
 1 -2.27699587348735  2.50574915131513  2.78777489528953
 1 -3.06542887538754  1.04125201050105  3.39713558265827
 1 -2.14371339163916 -2.11769304230423 -0.76049383618362
 1 -1.43310847984798 -0.08961043394339 -1.10561035183518
 1 -0.03364536623662 -0.86116755005501  1.36123198839884
 1 -0.24107782758276 -2.43018935273527  0.87331756385639
 1 -3.65079961036104  5.35761358925893  0.48879383708371
 1 -5.48317859845984  6.62498517441744  0.72942984908491
 1 -4.85238626682668  5.73421238223822  2.34503227552755
 1 -8.74200721482148  6.18008311751175 -0.32288866466647
 1 -11.94008356195620 -1.53234410191019 -0.64222865006501
 1 -12.90752696769677 -0.03883748394840 -0.67611524792479
 1 -13.13023084618462 -2.04249636503650 -2.57792490959096
 1 -12.95236220002000  0.26152357385739 -3.34430660016002
 1 -10.97875469986999 -0.74210752775277 -2.81344795219522
 1 -8.61227041034103 -5.04707126272627 -1.70760298829883
 1 -7.71781699629963 -5.74289430203020 -0.21224087598760
 1 -9.05245252525252 -4.50260222142214  0.14338894839484
 1 -2.85328490989099 -3.24675840074007 -0.30595890269027
 1  3.42900451585159 -3.31909918371837 -1.14595031213121
 1  2.78774306310631 -1.90805672067207 -2.39406964226423
 1  4.18833616131613 -1.18748149654965  0.19845344694469
 1  4.51417447444744 -0.86831030353035 -3.40571068606861
 1  6.29253283168317 -0.36245492089209 -3.27873909780978
 1  5.65947977537754 -2.00761337563756 -3.24825900970097
 1  6.57577799969997  0.91462680008001 -1.58256087328733
 1  5.80840594999500  0.18174372217222  0.07507324392439
 1  6.98347952685269 -1.57542573967397 -0.17704598299830
 1  7.91805720412041 -1.26566535683568 -1.88783825972597
 1  8.34397652905291  1.35372596739674 -0.80514329962996
 1  7.69106760486049  0.54572976117612  0.96401210961096
 1  9.95502794989499 -0.97154459815982 -0.54661181878188
 1  8.60476272057206 -1.94393320902090  1.74049241004100
 1  10.47073314271427 -2.00247412861286  1.85506739813981
 1  9.60208341994199 -0.46549777217722  3.02398370347035
 1  10.94935857365737  1.24158691859186 -0.89746691829183
 1  10.65287503410341  1.48744762036204  1.25389927022702
 1  12.49717725992599 -0.68346078557856  1.12209589288929
 1  12.25105725972597 -0.88598681928193 -0.14539753725372
 1  13.45101997199720  1.35423496849685 -0.67857676227623
 1  13.44143618841884  1.89611386268627  0.92081787118712
 1  14.98407983378338 -0.52415993199320  0.11551336013601
 1  15.57524742464246  0.80195059055906  2.36773954695470
 1  14.20518779227923 -0.73096076797680  2.12608010611061
 1  15.86555358845885 -0.80540412351235  1.76662314001400
 1  15.54129526442644  1.68904889828983 -0.89923989868987
 1  16.02968700130013  2.06294583008301  0.58533685688569
 1  17.69104041914191  0.97681085168517  1.17429761646165
 1  17.29020654485448 -0.04965679647965 -0.28493987138714
 1  18.01109611671167  1.89453600140014 -1.67100008830883
 1  18.75740573667367  2.76787069396940  0.06822349284928
 1  19.93921648284829  0.85661850805080  0.48805215601560
 1  20.21833015101510  1.08194324392439 -2.89062118731873
 1  20.95038932893289 -0.40327212901290 -1.73254738813881
 1  19.08661138813882 -0.38449616801680 -1.80618869356936
 1  21.04288106670667  2.54220379947995  0.22187294089409
 1  21.81173891419142  2.04469105180518 -1.05749846484648
 1  20.40752740564056  3.24313180038004 -1.27038183448345
 1  0.10765514041404 -4.34558730813081  2.43861220922092
 1 -1.60623030403040 -5.22155942964296  2.90544118071807
 1 -1.27037105040504 -3.34721319841984  3.56456060926093
 8 -11.93152152645265  3.72184698389839 -0.83020483418342
 1 -12.91947245874588  2.18670991109111 -0.98454905990599

