%nproc=4
%Mem=2GB
# td=(NStates=1) iop(3/107=0140000000,3/108=0140000000) iop(3/107=0140000000,3/108=0140000000) CAM-B3LYP/6-31G(d,p) 

TD

0 1
12 -6.73170574267427  0.61748089218922  0.19252687218722
 6 -4.64403150965097 -2.18809723152315  0.57867814481448
 6 -4.16369818521852  2.71590322342234  1.18725160676068
 6 -8.80331303600360  3.14208823292329 -0.31610111181118
 6 -9.20411850945095 -1.64089711931193 -0.78232829152915
 7 -4.67915298719872  0.41432082978298  0.70428946104610
 6 -4.07518478407841 -0.86786649344934  0.87182773817382
 6 -2.66875029362936 -0.50221198039804  1.30674273657366
 6 -2.55484545034503  0.96177632643264  1.59166132863286
 6 -3.92611887478748  1.42431251645164  1.17009178387839
 6 -2.16463274897490  1.10224202010201  3.03544810761076
 6 -1.75973472187219 -1.09454201760176 -0.03326199989999
 6 -0.35122324062406 -1.32335404200420  0.49850892439244
 6  0.56879795899590 -1.40133737063706 -0.74261243504350
 8  0.52377244534453 -0.95765837833783 -1.83951494169417
 8  1.74607489408941 -2.23780407900790 -0.45050997349735
 7 -6.57856959915992  2.61997236723672  0.51086483438344
 6 -5.44364492539254  3.25964460766077  0.87210350655066
 6 -5.73220743594359  4.74852453725372  0.70949581818182
 6 -6.93850456385639  4.86632272277228  0.39547613091309
 6 -7.59883158705871  3.49078788718872  0.10043487488749
 6 -4.63978889918992  5.89577700820082  1.20072774077408
 6 -7.74793635493549  6.16139305940594  0.25271479517952
 8 -7.25067898409841  7.28815043164316  0.50826868366837
 7 -8.75285883938394  0.71899275847585 -0.38042069116912
 6 -9.30445411781178  1.81182591789179 -0.60571162346235
 6 -10.66897352765277  1.64096396749675 -1.12212799399940
 6 -10.70277463496350  0.26406731113111 -1.26798765426543
 6 -9.63884554785479 -0.29524768796880 -0.80597267396740
 6 -11.72827960326033  2.60463665676568 -1.36659130993099
 6 -11.88903202370237 -0.44177774007401 -1.61589972367237
 6 -11.96832369446945 -0.85574773997400 -3.25318811351135
 7 -6.97706418931893 -1.42916547784778 -0.00906355085509
 6 -8.02703536513651 -2.16392638933893 -0.36935013301330
 6 -7.60731831693169 -3.62887020942094 -0.48851986208621
 6 -6.30833645484548 -3.67412657355736 -0.07419568016802
 6 -6.00988727742774 -2.29697851235123  0.20943712801280
 6 -8.31904042754275 -4.74095147294729 -1.06049886578658
 6 -5.25218142264226 -4.56047184528453  0.16253427912791
 8 -5.02637438613861 -5.62056259455946  0.04178468506851
 6 -4.00852457785779 -3.59109966916692  0.68153280048005
 6 -3.46857036793679 -3.65677185268527  2.07066677967797
 8 -3.89570481058106 -4.10890762556256  3.15130380018002
 8 -2.10893256815682 -3.66166247154715  1.91421136033603
 6 -1.17299582168217 -3.98252334243424  3.05828025322532
 6  2.73926581938194 -2.37437261416142 -1.42317356145615
 6  3.90980474787479 -1.42224922602260 -1.11228676097610
 6  4.96012676807681 -1.22966983838384 -1.76614281588159
 6  5.27333131693169 -1.84106724142414 -2.91856883908391
 6  6.07634145874588 -0.29294694759476 -1.35948250675068
 6  7.45546424042404 -0.84053983608361 -0.79875661296130
 6  8.46502906320632  0.31382701730173 -0.54072255275528
 6  9.74398748814881 -0.26412333263326 -0.06453475917592
 6  9.47406492279228 -0.85892470717072  1.30083445224522
 6  10.91827415741574  0.66922177637764  0.00931576997700
 6  12.15727099759976  0.14192549974997  0.03277158835884
 6  13.34020556315632  1.18632590729073  0.27989088748875
 6  14.72477881308131  0.52196547464746  0.47648231033103
 6  14.80345533363336 -0.11275355585559  1.86355627962796
 6  15.83611323972397  1.63658856085609  0.21564476977698
 6  17.20446992509251  0.99029425382538 -0.10656753065307
 6  18.27541708910891  1.90608779998000 -0.49538968576858
 6  19.79483168426843  1.26450494529453 -0.59268935263526
 6  20.03014281558156  0.39211464176418 -1.83594938613861
 6  20.98096526542654  2.24266568456846 -0.38848394429443
 1 -3.49665030333033  3.48060931193119  1.64724412611261
 1 -9.67821180368037  3.89997908300830 -0.47407104100410
 1 -10.05119761136114 -2.44485488478848 -1.00456328222822
 1 -2.23197571437144 -1.22610022782278  2.09009905820582
 1 -1.55743508210821  1.24293476967697  0.95158161156116
 1 -1.24600598429843  0.37649596399640  3.43971468256826
 1 -1.98839701360136  2.04362293869387  3.62503862166217
 1 -3.03609594209421  0.70723860916092  3.84281015011501
 1 -2.18570759105911 -2.00693196619662 -0.47855564236424
 1 -1.92388755775578 -0.32499397229723 -0.91949173997400
 1  0.05021301960196 -0.54038547184718  0.90488635383538
 1 -0.23520724052405 -2.10356669046905  0.84354458655866
 1 -3.72315684608461  5.89432726062606  0.38205316301630
 1 -5.02056233683368  7.03005568146815  1.38485539163916
 1 -4.24956598479848  5.44992395339534  2.14099187148715
 1 -8.71660467456746  6.02760786998700 -0.03790016581658
 1 -12.12971252485248 -1.19783065056506 -1.04927935513551
 1 -12.77546376137614  0.25948234803480 -1.69945758215822
 1 -12.85662348544855 -1.57080919631963 -3.47599471657166
 1 -12.13813077687769  0.14317173867387 -3.88448061756176
 1 -11.06479330373037 -1.25883920092009 -3.51869847724772
 1 -8.45757494079408 -4.64350090569057 -2.07825005300530
 1 -7.74488970357036 -5.85334534713471 -0.51174082598260
 1 -9.44527180718072 -5.01691365256526 -0.36531192169217
 1 -3.26724630603060 -3.64454817971797 -0.13780208700870
 1  2.78983059845985 -3.40178745254526 -1.51586730383038
 1  2.36980126892689 -2.27162307730773 -2.42260249554955
 1  3.58640596829683 -1.06304905330533 -0.27640403880388
 1  4.51831488848885 -1.76661013351335 -3.39882999799980
 1  5.85943952235224 -1.47305598099810 -3.57978920282028
 1  5.30520434783478 -2.82828544284428 -2.89455363916392
 1  6.26420684258426  0.28672400980098 -2.25095771297130
 1  5.25208031743174  0.59310485828583 -0.59639390279028
 1  7.56700787968797 -1.58345654275427  0.04684640624062
 1  7.57165256365636 -1.30717950825082 -1.41569104500450
 1  8.69535166656666  0.89362995779578 -1.27711049634963
 1  8.02868136623662  0.56678186638664  0.34543025142514
 1  10.31000344744474 -0.83160060376038 -0.77506466406641
 1  8.89802204650465 -1.54394321002100  0.99725808660866
 1  10.95085115451545 -1.17437131833183  1.69423131453145
 1  8.92117532913291 -0.47398862126213  2.14947625272527
 1  10.83426706450645  1.23049580948095 -0.79876704830483
 1  10.98915866246625  1.26460533613361  0.64487836813681
 1  12.30783832603260 -0.55980842034203  0.71293497679768
 1  12.45245739973997 -0.34680290089009 -0.99856285378538
 1  13.34821969196920  1.79580912591259 -0.63780268486849
 1  12.89773181798180  1.86929118041804  1.05684147354735
 1  15.13986541234123 -0.05299281528153 -0.35410360156016
 1  15.10681058095810  0.54283467896790  2.57545031803180
 1  14.28009528302830 -0.98439611151115  1.89203670177018
 1  15.51685871897190 -0.63950753385339  1.78873535123512
 1  15.53604473937394  2.26086608000800 -0.71064103880388
 1  16.06345037763776  2.36183571907191  0.88690701390139
 1  17.50005132023202  0.51876504710471  0.89516970367037
 1  17.29882740694070  0.02325049424943 -1.03468484588459
 1  18.27707271437144  2.83146969476948 -1.29681266956696
 1  18.63389338543855  2.49396330323032  0.39805647614762
 1  19.76246880808081  0.57970081628163  0.40466381718172
 1  20.03637195519552  1.07910295989599 -2.95949807500750
 1  20.85266955695570 -0.09092089388939 -1.84175830923092
 1  19.12898562556256 -0.40789850825083 -1.92690076477648
 1  20.62597937653765  2.80464004310431  0.47730848444845
 1  21.85307304760476  1.70925750845085 -0.28788150315031
 1  21.01151780468047  3.14691217841784 -1.22801759805981
 1 -0.73474910001000 -3.88624137353735  2.27201554955495
 1 -1.50097977897790 -4.72492976667667  3.88382901950195
 1 -1.22474648794879 -3.62005048214821  3.66045019821982
 8 -11.52691106540654  3.93317811701170 -1.28995080878088
 1 -12.55993650515052  2.37405864596460 -1.60445105010501

