%nproc=4
%Mem=2GB
# td=(NStates=1) iop(3/107=0140000000,3/108=0140000000) iop(3/107=0140000000,3/108=0140000000) CAM-B3LYP/6-31G(d,p) 

TD

0 1
12 -6.73645621772177  0.58978812291229  0.17924554405441
 6 -4.56026313281328 -2.10158858065807  0.52555283228323
 6 -4.17667948334833  2.76668830193019  1.03532641424142
 6 -8.90840354505451  3.35076910101010 -0.18804830653065
 6 -9.31934003160316 -1.62775580518052 -1.05080513921392
 7 -4.59503457535754  0.29088848654865  0.81845087718772
 6 -3.97304457005701 -0.89392909970997  0.73391394679468
 6 -2.53075649424943 -0.62216397559756  1.03661572387239
 6 -2.33224319011901  0.78323847264726  1.37560972347235
 6 -3.89422568546855  1.37989807500750  1.14475925062506
 6 -1.98251453715372  1.20948274417442  2.95834039683968
 6 -1.60593934233423 -0.96417898129813  0.00448177447745
 6 -0.31477959625963 -1.47530923752375  0.45048412191219
 6  0.79567064626463 -1.58170540744074 -0.63439161296130
 8  0.74609467756776 -0.94857747024702 -1.68444943514351
 8  1.96721700830083 -2.24512481108111 -0.08361328382838
 7 -6.48806054825483  2.59410978097810  0.40107385528553
 6 -5.37221778267827  3.27201584478448  0.75427172337234
 6 -5.69042325752575  4.70620030483048  0.77353222182218
 6 -7.02041275467547  4.85091118161816  0.39214579787979
 6 -7.53783548744875  3.60752956135614  0.15768059945995
 6 -4.62363728402840  5.79140657115711  1.22061972997300
 6 -7.71580314161416  6.18901582168217  0.13101262496250
 8 -7.22410632683268  7.35458707530753  0.29061691849185
 7 -8.66076963046305  0.74062492169217 -0.44626727582758
 6 -9.23372704510451  1.86515125042504 -0.46869792209221
 6 -10.71338796909691  1.83229310041004 -0.86890267146715
 6 -10.83624798229823  0.40388129252925 -1.18415927142714
 6 -9.46782844614461 -0.30384854805481 -0.93845592229223
 6 -11.81301807710771  2.87483367646765 -1.15840049084909
 6 -11.91142426292629 -0.43354691699170 -1.68107624132413
 6 -11.72364922702270 -0.87726989218922 -3.26605940064006
 7 -6.90584706760676 -1.37481004230423 -0.10866351085108
 6 -8.05785844744474 -2.17046704340434 -0.56015921392139
 6 -7.47540512561256 -3.49642696509651 -0.67543855395540
 6 -6.34763038423842 -3.62125128602860 -0.23649190979098
 6 -5.96242253095309 -2.32423123762376  0.15515169946995
 6 -8.37393591709171 -4.74029140694069 -1.11995481138114
 6 -5.27828403290329 -4.42074787288729  0.06076410211021
 8 -4.99049079777978 -5.55796633493349 -0.25377487088709
 6 -4.10609433483348 -3.50714127332733  0.68321296849685
 6 -3.65965947684768 -3.90944712021202  1.98632834583458
 8 -4.32907814791479 -4.20830756555656  2.97583625342534
 8 -2.27766944184418 -3.78714501980198  2.00170010921092
 6 -1.61094961706171 -4.13985907600760  3.13405783098310
 6  2.99366125892589 -2.56897207410741 -0.97568881298130
 6  4.03717748514851 -1.48012501360136 -0.78631416371637
 6  5.07433818921892 -1.29560643204320 -1.56888308990899
 6  5.45314929872987 -1.91476461116112 -2.89839682188219
 6  6.23586741134113 -0.29908756165617 -1.16382294079408
 6  7.41122981698170 -0.99315509760976 -0.63428016531653
 6  8.41388394869487  0.15945157975798 -0.39255773627363
 6  9.67377046644665 -0.57019393969397  0.22327402170217
 6  9.37878539483948 -1.06083489818982  1.69105347414742
 6  10.80780311031103  0.56045089928993  0.35697053545355
 6  12.19003427392739  0.04632593979398  0.49273758495850
 6  13.43328487108711  0.83994126882688  0.48339123752375
 6  14.67916425162516  0.54842812091209  0.25316997909791
 6  14.96758174627463 -0.00148242874287  1.32314223822382
 6  15.89097872627263  1.53109801180118  0.05414862016202
 6  17.15171464956495  0.87441266566657 -0.29857673157316
 6  18.27207675507551  2.06927411861186 -0.46492663946395
 6  19.40531273237324  1.66746524132413 -0.79642972667267
 6  19.60152995429543  0.94843027332733 -2.28396418761876
 6  20.60889805870587  2.65799721772177 -0.67256235213521
 1 -3.33988462676268  3.53797504850485  1.07863726542654
 1 -9.85650963346335  4.27764684978498  0.08408477457746
 1 -10.19905239683968 -2.00436083538354 -1.21651447734773
 1 -2.26851936873687 -1.34260187798780  2.05738578687869
 1 -1.77269660826083  1.22513298949895  0.84131058445845
 1 -0.72362374607461  1.03155146954695  3.19517022812281
 1 -2.09318749264926  2.52296087248725  2.85802191999200
 1 -2.66972930543054  0.63441132643264  3.49942581168117
 1 -2.31763078337834 -1.72292356535654 -0.53141092789279
 1 -1.30191536053605  0.19756828392839 -0.57973776457646
 1 -0.01221322302230 -1.14132556585659  1.17500336553655
 1 -0.43284700450045 -2.64245057885789  1.15141537363736
 1 -3.77139166956696  5.93357118501850  0.74174913261326
 1 -4.90763104370437  6.79304198009801  1.65155206130613
 1 -4.20901192939294  5.40413937493749  2.07084485678568
 1 -8.71416443054306  6.02075718491849 -0.27671404720472
 1 -12.33511306490649 -1.12835370287029 -1.01010543774377
 1 -12.87009322432243  0.19566596639664 -1.80130776717672
 1 -12.76926474957496 -1.05079719511951 -3.75703282038204
 1 -11.35908287208721 -0.05583816231623 -3.72043421292129
 1 -11.16557338173817 -1.63761707870787 -3.74840144754476
 1 -8.98535771907191 -4.64062061766177 -1.88894112211221
 1 -7.81352656725673 -5.65296530913091 -1.11604125602560
 1 -9.31651893189319 -4.89098105930593 -0.35237062756276
 1 -3.34252383378338 -4.23911763666367 -0.16863517031703
 1  2.96792840824082 -3.84392166596660 -0.70326604370437
 1  2.32897718651865 -2.32221813681368 -1.98848908420842
 1  4.04845217291729 -0.91375412381238  0.09606320792079
 1  4.66920997799780 -1.72819629212921 -3.35393550855085
 1  6.51777535593559 -1.94115279067907 -3.25659688358836
 1  5.29915374277428 -3.15557817211721 -2.63376756055606
 1  6.40204062596260  0.04590992839284 -1.93307592479248
 1  5.98449355875587  0.43290883868387 -0.46638090149015
 1  7.16541772067207 -1.71105930303030  0.41546326792679
 1  7.96288168656866 -1.70178896919692 -1.47184666056606
 1  8.53254538593859  0.57391798659866 -1.14243702900290
 1  8.00666916501650  0.84799998819882  0.49329503790379
 1  10.29090153725373 -1.66381382508251 -0.36388354595459
 1  8.98789103340334 -2.11694050975098  1.55377373817382
 1  10.12518858825883 -1.51988586978698  2.35110700210021
 1  8.76159937153715 -0.32646386878688  2.39160046514652
 1  10.82026566436644  1.05352811271127 -0.43705087668767
 1  10.92904265086509  1.22579145474547  1.02432631293129
 1  12.34645218741874 -0.78172061156116  1.34487817111711
 1  12.57206936093609 -0.73501172177218 -0.40302329982998
 1  13.05516038603860  1.29567911291129 -0.52273117771777
 1  13.11735378017802  1.60907515881588  1.28545433483348
 1  14.52586401220122 -0.32372988898890 -0.28161635283528
 1  15.05734563446345  0.88088848434843  1.68972174517452
 1  14.28741601510151 -0.95284295619562  1.59049654775478
 1  15.67407444054405 -0.33391697479748  1.21360783848385
 1  15.44242537743774  2.37851784518452 -0.63135311001100
 1  15.68585261786179  2.02437197269727  1.10923924712471
 1  17.36502781788179  0.19749291989199  0.45647583428343
 1  16.98899642384238  0.40499866906691 -1.33421479887989
 1  17.96750175727573  2.57633418121812 -1.30033302160216
 1  18.55035503160316  2.47587149404940  0.43407007750775
 1  19.86563912511251  0.78537138333833  0.06142949374938
 1  19.68606692469247  1.95837088668867 -3.15408753395340
 1  20.42062635263526  0.32080027822782 -2.95425955935593
 1  18.91132385938594  0.39522180378038 -2.30777885258526
 1  20.87019379797980  2.98611819091909  0.16691744534453
 1  21.84839257955796  2.37682426512651 -0.69106182118212
 1  20.54092074497450  3.58430591779178 -1.47674247054705
 1 -0.72048767386739 -4.63831658105811  2.90791913991399
 1 -2.26661634263426 -4.76515378907891  3.89170980758076
 1 -1.17541155445545 -3.13687216431643  3.65963011621162
 8 -11.70589896419642  4.01722652185219 -0.89835164886489
 1 -12.61033154465447  2.33311455155516 -1.67147775277528

