%nproc=4
%Mem=2GB
# td=(NStates=1) iop(3/107=0140000000,3/108=0140000000) iop(3/107=0140000000,3/108=0140000000) CAM-B3LYP/6-31G(d,p) 

TD

0 1
12 -6.79105167726773  0.56168531263126  0.27224484398440
 6 -4.50266737323732 -1.84892331413141  0.45725600260026
 6 -4.23041485688569  2.88826045914591  0.94637751935193
 6 -9.01009371407141  3.27085110921092 -0.14426392809281
 6 -9.38648674627463 -1.72137516711671 -0.43337339603960
 7 -4.67197226912691  0.48903830153015  0.49586861896190
 6 -3.88038530413041 -0.73527323412341  0.60679123452345
 6 -2.41431485008501 -0.52378413761376  0.90704276657666
 6 -2.34437440324032  1.16546669546955  1.04768693119312
 6 -3.90462672557256  1.55356544174417  0.88698347304730
 6 -1.87493377907791  1.47489928582858  2.66702126492649
 6 -1.48939768816882 -0.93509607300730 -0.26101477517752
 6  0.04166604830483 -1.15819752635264  0.24099317281728
 6  0.86712779197920 -1.31338857575758 -0.98549672347235
 8  0.82675274337434 -0.85653826632663 -2.05562655285529
 8  1.89440972757276 -2.10673097169717 -0.63309823232323
 7 -6.64307604980498  2.51167153715372  0.48139188708871
 6 -5.58836939783978  3.34328297149715  0.67792408860886
 6 -5.93727794299430  4.77536722152215  0.66227109570957
 6 -7.18612932633263  4.86255234573457  0.32818940224022
 6 -7.75025672957296  3.50754956335634  0.23531836323632
 6 -4.89706462676268  5.81953938443844  0.81964963296330
 6 -8.13746530783078  6.16583350345035  0.17578710241024
 8 -7.48131204740474  7.27978959555956  0.16330418721872
 7 -8.69631318481848  0.75898675787579 -0.27957060616062
 6 -9.48992266466647  1.88578331363136 -0.33984503680368
 6 -10.88997562786279  1.53847371847185 -0.64429021022102
 6 -11.14934929242924  0.20440134453445 -0.78818967446745
 6 -9.69977164046405 -0.34762292549255 -0.49321139783978
 6 -11.89834660996100  2.60097629072907 -0.81591624242424
 6 -12.31301442194219 -0.74480804310431 -0.95269340304030
 6 -12.75174203630363 -0.83839600480048 -2.44142693739374
 7 -6.93593007590759 -1.39294185548555 -0.01398404290429
 6 -8.04251691329133 -2.21751174787479 -0.31961515951595
 6 -7.65502308740874 -3.59894721712171 -0.27255826592659
 6 -6.32792841404140 -3.57445660656066 -0.06208446904690
 6 -5.87616390509051 -2.18879769426943  0.02862904720472
 6 -8.39423794729473 -4.81858923672367 -0.53552636853685
 6 -5.12023822832283 -4.42256805490549  0.02303032873287
 8 -4.82043379207921 -5.53288382668267 -0.07945743914391
 6 -3.84633835923592 -3.39410997019702  0.29859450665067
 6 -3.22954646554655 -3.67671384688469  1.60014972797280
 8 -3.69700494059406 -3.89244597939794  2.72889155895590
 8 -1.81949362426243 -3.58560486578658  1.60972091129113
 6 -1.10549907200720 -4.00843593369337  2.77394181938194
 6  2.91428332113211 -2.47000217711771 -1.59359060316032
 6  3.99187295469547 -1.53065006610661 -1.31493702600260
 6  5.14111486688669 -1.21970884228423 -1.98704490609061
 6  5.43415739953995 -1.86283941864186 -3.34663164536454
 6  6.11208503310331 -0.15108276117612 -1.59454601310131
 6  7.35547424142414 -1.06272205430543 -0.85294203150315
 6  8.38292085238524 -0.03431779717972 -0.44592307280728
 6  9.67210029942994 -0.60123704400440  0.16441813611361
 6  9.64689220552055 -1.21302011671167  1.67436180498050
 6  10.77996032603260  0.55835068926893  0.19046388478848
 6  12.28604387488749 -0.15784447724772  0.45169348054805
 6  13.28836037863786  1.13283055775578  0.23799669806981
 6  14.83983031823182  0.42429570767077  0.31750641274127
 6  14.86364135223522 -0.25208748924892  1.71246117011701
 6  15.89099872827283  1.40313521552155  0.04371757705771
 6  17.32238171627163  0.74166939133913  0.03678680478048
 6  18.27586713411341  1.73564075527553 -0.18773892069207
 6  19.83932613371337  1.31908040284028 -0.18218830253025
 6  20.32217201850185  0.34810024032403 -1.20264605580558
 6  20.78059522842284  2.55350676867687 -0.11107620352035
 1 -3.41169180748075  3.51923317431743  1.37196659835984
 1 -9.87902188468847  3.99652873797380 -0.11464509840984
 1 -10.22232472407241 -2.54055445474547 -0.76961978787879
 1 -2.26171868866887 -1.30441805960596  1.90657070537054
 1 -1.69740907950795  1.62153262946295  0.27342379577958
 1 -0.95595697939794  1.18119643404340  2.57976868796880
 1 -1.69235740964096  2.37566614301430  2.68896501430143
 1 -2.65013734623462  1.08934681998200  3.60833670277028
 1 -1.86936595689569 -1.81683295629563 -0.86139392619262
 1 -1.43569873887389 -0.28010948384838 -1.03478326912691
 1  0.23725172347235 -0.21255268856886  0.93867973317332
 1 -0.10930465026503 -1.98518485228523  0.71981221332133
 1 -4.20942547294729  5.58611643954395  0.43188814651465
 1 -5.58151843244324  7.08805148104810  0.78730563666367
 1 -4.62341336953695  5.81610057105711  1.76651442374237
 1 -9.14902791689169  6.28293340254025  0.00022364656466
 1 -12.20679023262326 -1.66187705520552 -0.13963839103910
 1 -13.27013322832283 -0.41067466766677 -0.64060169656966
 1 -13.62821064416442 -1.68706082148215 -2.67718483558356
 1 -13.12855981978198 -0.11764434293429 -2.77391956145615
 1 -12.07102392679268 -1.53143646064606 -2.99710631803180
 1 -8.83860304360436 -4.52409896549655 -1.59165139313931
 1 -7.44529974457446 -5.72864287688769 -0.30070972287229
 1 -9.34596187618762 -5.03898585978598  0.10903551305130
 1 -3.16408598999900 -3.44351807670767 -0.58673698049805
 1  3.05765738113811 -3.36798407220722 -1.46941265836584
 1  2.54953924272427 -2.36905282028203 -2.66047628292829
 1  3.72759008670867 -0.75333808220822 -0.57790418881888
 1  4.50242329932993 -1.58234170667067 -3.98995911091109
 1  6.35854943334333 -1.21229990539054 -4.05658688258826
 1  5.34851867926793 -3.16652926722672 -3.31137532133213
 1  6.31910233213321  0.42707804520452 -2.48186080328033
 1  5.78039314871487  0.50430597839784 -0.80490475387539
 1  6.78489966886689 -1.71577977507751 -0.28884716311631
 1  7.91726712511251 -1.96768555885589 -1.53591306720672
 1  8.95507763916392  0.78877947274727 -1.32913569886989
 1  8.14479297739774  0.69956514471447  0.17735344374437
 1  9.86500894799480 -1.26377382108211 -0.45951310891089
 1  8.59040128442844 -1.89685850155015  2.22946130693069
 1  10.45111118051805 -1.76233011421142  1.90684257565757
 1  9.26729994159416 -0.06393761616162  2.49942124722472
 1  10.89292293009301  1.26645940584058 -0.82722989458946
 1  10.50929067566757  1.21280015561556  0.79609348964897
 1  12.55017255945594 -0.77531997149715  1.34772845614561
 1  12.52731488548855 -1.23749196979698 -0.43208620612061
 1  13.14892976297630  1.49006855185519 -0.48592749734974
 1  12.94837688248825  1.70185443674367  1.07888367776778
 1  14.97416884268427 -0.40381789778978 -0.24714290549055
 1  14.51734163406341  0.49973036853685  2.26738951195119
 1  14.30891816531653 -0.98902657455745  2.06370386848685
 1  16.19197623072307 -0.45806939003900  2.04350082778278
 1  15.81548268316832  2.06984697809781 -0.61723169786979
 1  16.12164619721972  1.94853438893889  0.80063838703870
 1  17.35910722582258  0.53512668326833  1.26421660836084
 1  17.18880640484048 -0.10141197199720 -0.59666104350435
 1  18.33993900100010  2.07192374017402 -1.23059604790479
 1  18.19019901600160  2.69495340224022  0.44919158965897
 1  19.76081864306431  0.75787863406341  0.59618296909691
 1  20.10110842884288  0.82478752835284 -2.13615574077408
 1  21.31756604660466  0.41157935613561 -1.20233436683668
 1  19.70675340234024 -0.24901261966197 -1.49062713741374
 1  20.06347312591259  3.38115769486949  0.80035078867887
 1  21.88555629592959  1.98228481118112  0.51883916891689
 1  20.75798245114511  2.70993848104810 -1.22086688298830
 1 -0.26154177927793 -4.29200194959496  2.34398274627463
 1 -1.18017769876988 -4.82949022272227  3.55831646824682
 1 -0.70597461076108 -3.17238571567157  3.19185333853385
 8 -11.87757613191319  3.82051685088509 -0.74744655835584
 1 -12.88350886238624  2.17302854295430 -1.05144574957496

