%nproc=4
%Mem=4GB
# td=(NStates=1) iop(3/107=0140000000,3/108=0140000000) iop(3/107=0140000000,3/108=0140000000) CAM-B3LYP/6-31G(d,p) 

TD

0 1
12 -5.73296480308031  1.17991286558656  0.21034964016402
 6 -5.02230261746175 -2.14571303460346 -0.30804767156716
 6 -3.51588037713771  1.19980026482648  2.88371374467447
 6 -6.17795659135914  4.51879514371437  0.69339954875488
 6 -7.96356212331233  1.14287513821382 -2.34100177367737
 7 -4.31401565486549 -0.27935612741274  1.00606194499450
 6 -4.31503503100310 -1.66277997959796  0.72084443404340
 6 -3.23206633113311 -2.27658096089609  1.58648301200120
 6 -2.97743091409141 -1.23523641454145  2.67171372747275
 6 -3.65820324772477 -0.03899652735274  2.20661524672467
 6 -3.54421746114611 -1.80815425682568  4.03358605800580
 6 -2.00462565576558 -2.64242165146515  0.59153445894589
 6 -1.06493813731373 -3.58092567316732  1.45766935493549
 6  0.17307240774077 -3.91714555525553  0.65303349804980
 8  0.50457052135214 -3.48486580018002 -0.47958419261926
 8  1.05677252295230 -4.75428504580458  1.32206681398140
 7 -5.02638345464547  2.50684006090609  1.54424465616562
 6 -4.13226531633163  2.44232165386539  2.49033963726373
 6 -3.86292579627963  3.66973547574757  3.26267682388239
 6 -4.67042759545955  4.55304683298330  2.64274354565457
 6 -5.32694879907991  3.89963805900590  1.59683577587759
 6 -2.97557292039204  3.76839421522152  4.38451264066407
 6 -4.85001153175318  5.99239666016602  3.01364086888689
 8 -4.15923597159716  6.48487637563756  3.88760266016602
 7 -6.89362316221622  2.63612350815082 -0.72642429872987
 6 -7.02965568036804  3.93182279947995 -0.42417410611061
 6 -7.90066525292529  4.63712043684368 -1.33733784328433
 6 -8.40175962926293  3.63786071597160 -2.13275221962196
 6 -7.79697858835884  2.40956696549655 -1.82440838733873
 6 -8.19965295619562  5.98269817921792 -1.37625713451345
 6 -9.44140850415042  3.78850924912491 -3.22736736953695
 6 -8.74378583228323  4.12458060426043 -4.59877628162816
 7 -6.45623404240424 -0.13007802550255 -0.96993208520852
 6 -7.35502503210321 -0.03667973657366 -1.99132334303430
 6 -7.56800430763076 -1.31746344994499 -2.68011053365337
 6 -6.65065461426143 -2.17977754955496 -2.08769493519352
 6 -6.05290370577058 -1.38065163026303 -1.06630276067607
 6 -8.37628308610861 -1.59013913991399 -3.85325222142214
 6 -6.15689935703570 -3.57674325822582 -2.04144769986999
 8 -6.49013340884088 -4.53877157555756 -2.61106737183718
 6 -5.05098366046605 -3.54532258485849 -0.83748606840684
 6 -5.35397287468747 -4.60115555665567  0.12203587538754
 8 -5.83428920052005 -4.39727873597360  1.29550591399140
 8 -4.79495919411941 -5.86563776017602 -0.19415255985599
 6 -5.25038260246025 -6.97180903420342  0.64054588438844
 6  2.25625659885989 -5.04698581878188  0.58487244164416
 6  3.37750228522852 -3.98944910581058  0.91250915071507
 6  3.95793518371837 -3.14314718481848  0.10472410741074
 6  3.78707304620462 -3.05509045034503 -1.42599210371037
 6  5.11392781858186 -2.40750579817982  0.66603040184018
 6  6.51254612591259 -2.66097902310231  0.02002346974697
 6  7.67472279587959 -1.70444980048005  0.50968665916592
 6  8.98290911221122 -1.97278211181118 -0.25490327282728
 6  9.43511989368937 -3.27197783818382  0.00668721102110
 6  9.96983756285629 -0.78229846724672  0.23712622812281
 6  11.38972627502750 -0.86303591049105 -0.34995376157616
 6  12.14656234483448  0.35014964246425 -0.14046719911991
 6  13.60963341914191  0.50537540744074 -0.80101486468647
 6  14.55532383138314 -0.74552395499550 -0.51097524842484
 6  14.19823576317632  1.81245741734173 -0.22636189098910
 6  15.63557774817482  2.12816084428443 -0.88890388538854
 6  16.43008559295929  3.49280403320332 -0.47635824902490
 6  17.63726897599760  3.74804264586459 -1.19859379457946
 6  17.43658624832483  3.90771566326633 -2.76038826302630
 6  18.24278368446845  5.09542480778078 -0.60842030093009
 1 -2.88337406020602  0.98366264166417  3.72333280168017
 1 -6.24666264506451  5.65010039043904  0.70547953965396
 1 -8.50402080928093  1.13775407830783 -3.10280575937594
 1 -3.48913997879788 -3.26959227462746  2.00665872667267
 1 -1.80467759165917 -1.28551621322132  2.59960123622362
 1 -3.15303508260826 -2.70157331853185  4.30918446244624
 1 -3.55680647334733 -0.98436834123412  4.75970800060006
 1 -4.63655616731673 -1.79726880778078  3.82504645514551
 1 -2.27709302300230 -3.21926144344434 -0.20276089988999
 1 -1.45101293369337 -1.82550166646665  0.60286840844084
 1 -0.88168360186019 -3.28074937053705  2.44467868656866
 1 -1.66635135673567 -4.42342947414742  1.74219601760176
 1 -1.92530264406441  3.48767829222922  4.31352726242624
 1 -2.97097808790879  4.87540474647465  4.76443270097010
 1 -3.27943093809381  3.24133513101310  5.45020002600260
 1 -5.46703976787679  6.57339153355336  2.37615293669367
 1 -10.13586271977198  2.97454811191119 -3.04123737543754
 1 -10.23415421332133  4.58112195629563 -3.09941023172317
 1 -9.56215601540154  4.31611002500250 -5.31337653995400
 1 -8.02762227162716  5.01481122652265 -4.44453440844084
 1 -8.35271512051205  2.96725608440844 -4.96962688748875
 1 -8.00160775037504 -1.13254379727973 -4.78552955125513
 1 -8.48994997799780 -2.69999340444044 -4.15802843984398
 1 -9.39001908140814 -1.43531035443544 -3.72431933863386
 1 -4.24238159555956 -3.83342816941694 -1.35852913981398
 1  2.63412454545455 -6.18105604860486  0.86028198509851
 1  2.31116185958596 -5.08192516861686 -0.53051650125013
 1  3.50696281858186 -3.75797507930793  2.09183419101910
 1  2.77697268396840 -3.11571719281928 -1.61002354335434
 1  4.13327794109411 -2.09161272057206 -1.58378084858486
 1  4.61024319831983 -3.92810653985399 -1.94428335423542
 1  5.01797183808381 -1.29171559555956  0.51831371487149
 1  5.18123665096510 -2.53810544294429  1.70430531083108
 1  6.77611513821382 -3.57565075717572  0.22679056305631
 1  6.45303546394639 -2.52456006500650 -1.04233482898290
 1  7.30236916821682 -0.65338866396640  0.19222646814681
 1  7.62577468036804 -1.84850143324332  1.61192557785779
 1  8.59539364866487 -1.83952222742274 -1.47306064416442
 1  8.66879139783978 -3.92467123852385 -0.26494028642864
 1  10.44584392519252 -3.70003420552055 -0.26969708320832
 1  9.58330739213921 -3.51173226472647  1.14891533423342
 1  9.45077422802280  0.19777550375038  0.10613597739774
 1  10.14804490199020 -0.81532806670667  1.21445098509851
 1  11.85122026332633 -1.90405043694369 -0.08336270947095
 1  11.23112919961996 -1.03364626952695 -1.53611494509451
 1  11.58112914641464  1.24926935613561 -0.45129468466847
 1  12.19201402470247  0.65889708110811  1.16391467166717
 1  13.48101490219022  0.54082851515152 -1.79264150285028
 1  14.76474581288129 -0.81984019671967  0.47158283828383
 1  14.17613318431843 -1.67435645194519 -0.64804112561256
 1  15.34488547694770 -0.57940113831383 -1.34419131163116
 1  13.41439963416342  2.59393401250125 -0.39376116381638
 1  14.22963966426643  1.66145643484348  0.78171538543854
 1  16.40638229402940  1.31472008470847 -0.59064555525553
 1  15.63734931833183  2.13999791259126 -2.09203058275828
 1  15.61653305790579  4.22385776377638 -0.62757475557556
 1  16.64363713381338  3.49370601200120  0.66566646704671
 1  18.34254793619362  2.91246273747375 -1.17714679427943
 1  16.89046976737674  4.95948247714772 -3.33426578637864
 1  18.48220414391439  3.98082759605961 -3.00020462556256
 1  17.07075727592759  3.02060313031303 -3.47812584718472
 1  18.06689273647365  5.10952216971697  0.53631529572957
 1  19.43363088538854  5.15753990619062 -0.93298021242124
 1  17.47907945884588  5.91164066716672 -1.04961902320232
 1 -4.82044734613461 -7.92235166826683  0.20646710901090
 1 -6.32504693499350 -7.05289237583758  0.44518802630263
 1 -4.90149831843184 -6.63923549914992  1.56225068166817
 8 -7.81491908350835  6.80789729052905 -0.52146993099310
 1 -8.85045334243424  6.29521516641664 -2.18606428922892

