%nproc=4
%Mem=2GB
# td=(NStates=1) iop(3/107=0140000000,3/108=0140000000) iop(3/107=0140000000,3/108=0140000000) CAM-B3LYP/6-31G(d,p) 

TD

0 1
12 -6.82670524262426  0.67616676077608  0.10158777827783
 6 -4.44624173067307 -2.04391281308131  0.52366264326433
 6 -4.26574839023902  2.75287692079208  0.98169105070507
 6 -8.79481218591859  3.19769379347935 -0.13342284398440
 6 -9.40632873047305 -1.68916194579458 -0.37383744244424
 7 -4.70552562446245  0.45827522522252  0.55593462556256
 6 -4.04224148974898 -0.90531023782378  0.73813436883688
 6 -2.51956537513751 -0.53567532673267  0.92446450875088
 6 -2.49960992679268  0.95788593739374  1.10430259275928
 6 -3.85427169006901  1.51688177337734  0.88465324002400
 6 -2.12973925962596  1.23876567246725  2.54682924572457
 6 -1.68047679607961 -0.93595615901590 -0.26852552625263
 6 -0.06561467976798 -1.04519622622262  0.28554762826283
 6  0.82544362356236 -1.19625686258626 -0.85258343214321
 8  0.65047511561156 -0.82378499099910 -2.11912290249025
 8  1.91530181678168 -1.86687698629863 -0.40955587808781
 7 -6.57785952815282  2.64065443544354  0.35241898979898
 6 -5.48112867376738  3.29876852005200  0.67486378257826
 6 -5.83571778697870  4.85424510931093  0.78159302790279
 6 -7.25548626202620  4.92901899239924  0.33018960226023
 6 -7.56351805570557  3.49340814921492  0.06481131253125
 6 -4.89473439373937  6.07192462296230  1.15422309030903
 6 -7.84565612691269  6.14156107620762  0.27876740044004
 8 -7.33992790899090  7.17690930753075  0.58818667546755
 7 -8.76480003350335  0.72298315751575 -0.24359700880088
 6 -9.49195286768677  1.92487722302230 -0.28122917521752
 6 -10.75774240454045  1.71538140924092 -0.63296907810781
 6 -11.00130448794879  0.21183208760876 -0.74204506000600
 6 -9.73941560486048 -0.35951411461146 -0.47896997369737
 6 -11.82151892719272  2.59542573567357 -1.12722737353735
 6 -12.12260538103810 -0.61806536883688 -1.10288842254225
 6 -12.07656451855186 -1.07525969116912 -2.53383617831783
 7 -6.96018250115011 -1.42207476877688 -0.04553719821982
 6 -8.04374703630363 -2.21374137083708 -0.36731992999300
 6 -7.57939552465247 -3.62036935933593 -0.47080809090909
 6 -6.32201782298230 -3.72692185308531 -0.13158141874187
 6 -5.87718400710071 -2.24951376587659  0.12037822212221
 6 -8.53497202070207 -4.79546692449245 -0.79890270617062
 6 -4.98151435593559 -4.54829062716272  0.14688271397140
 8 -4.80202195089509 -5.69931046934693 -0.04033352675268
 6 -3.94022774817482 -3.48599915911591  0.46633128032803
 6 -3.30844435533553 -3.80284646014601  1.82354206720672
 8 -3.86178141824182 -4.18965570037004  2.74533320312031
 8 -1.84911658655866 -3.59177548284829  1.71798173737374
 6 -0.88854737683768 -4.17901299139914  2.76462088728873
 6  2.93507540034003 -2.16733191009101 -1.37310855495550
 6  4.17948171557156 -1.26582358345835 -1.24583011531153
 6  5.09282003740374 -1.23321019241924 -2.10995719731973
 6  5.35460944474447 -2.12053518821882 -3.30309729192919
 6  6.24279810441044 -0.28536618951895 -1.86006256475648
 6  7.38617731173117 -0.82815859795980 -0.92397913521352
 6  8.35370793109311  0.21449708430843 -0.31314979547955
 6  9.73390648004801 -0.35350227052705  0.20258195249525
 6  9.37853536983698 -1.01727054175418  1.66432080088009
 6  10.82253458345835  0.75832068626863  0.28825366376638
 6  12.22173744424443  0.25551685888589  0.35362367356736
 6  13.33513505610561  1.26385366006601  0.53227612601260
 6  14.58654498969897  0.51639491759176  0.38931359345935
 6  14.92537752585259 -0.12511479197920  1.87081700570057
 6  15.73945357375738  1.39350425242524  0.24633783908391
 6  17.18453793189319  0.92880810521052  0.16503963006301
 6  18.23772331973197  1.72898008920892 -0.16410655745575
 6  19.63395559665966  1.07741623642364 -0.46415649934994
 6  19.46189599089909  0.26195162546255 -1.75410120132013
 6  20.96970413931393  1.98465988398840 -0.42397749364937
 1 -3.38620925922592  3.12790404140414  1.43818322002200
 1 -9.47785176767677  4.18779786488649 -0.11407504140414
 1 -10.22666515811581 -2.80160055935594 -0.47511033693369
 1 -2.01744426122612 -1.18893651145115  1.69762981128113
 1 -1.52871220982098  1.09041951815181  0.68362481588159
 1 -1.15849723342334  0.95112342674267  2.74956566766677
 1 -2.02089026292629  2.43208178457846  2.71257737553755
 1 -2.89270160266026  0.83511139643964  3.52386825592559
 1 -2.02790181048105 -2.32224349734973 -0.59646743354335
 1 -1.78424359335934 -0.26968844174418 -1.13087287808781
 1  0.00734873317332  0.06936550325032  1.01437730293029
 1 -0.08292201200120 -1.74201053485349  0.90869110121012
 1 -4.37587211761176  6.00717854575458  0.25419037673767
 1 -5.17971825242524  6.95428810471047  1.38314522062206
 1 -4.15548657685769  5.63241220222022  2.10023779607961
 1 -9.04256727082708  5.93136824602460 -0.27213358915892
 1 -12.18646820042004 -1.46007687518752 -0.26767119431943
 1 -13.37136335133513  0.06792319211921 -1.09691732813281
 1 -12.53704152725273 -1.40563267866787 -2.85654277137714
 1 -12.37923488728873 -0.00960353885389 -3.01227339683968
 1 -11.12448927332733 -1.40423374037404 -2.91053766116612
 1 -9.01732091539154 -4.58271482708271 -1.54288651665166
 1 -8.26371158575857 -5.84660467306731 -1.19287893979398
 1 -8.70777805780578 -4.96982894409441  0.45005961546155
 1 -3.35384496589659 -3.54767849274928 -0.28614692149215
 1  3.42536415181518 -3.31607888168817 -1.16221193829383
 1  2.50767505630563 -2.06006192119212 -2.32896313161316
 1  3.93427075477548 -0.84667741614161 -0.12032843124312
 1  4.71948500550055 -1.45359883238324 -4.23473358835884
 1  6.46976055445545 -1.99961863726373 -3.63105432933293
 1  5.43077690509051 -3.39076169046905 -2.91918610241024
 1  6.90281070297030  0.01864720212021 -2.72486510371037
 1  5.66676178557856  0.56362190999100 -1.56318058145815
 1  7.21970314921492 -1.45428362546255 -0.07369564796480
 1  8.10416581498150 -1.73481227152715 -1.32891236713671
 1  8.52176430783078  0.63372396719672 -1.27122990829083
 1  8.05273377147715  1.07939312751275  0.11702741114111
 1  10.02121456855686 -1.23033047674767 -0.44191134873487
 1  8.70142238653865 -1.83264207990799  1.58034639543954
 1  10.48142421182118 -1.30768464966497  1.98415030643064
 1  8.95426863846385 -0.27348857125713  2.30179148424843
 1  10.86767040484049  1.44191695159516 -0.48731590319032
 1  10.55062480908091  1.47263613921392  0.99878375867587
 1  12.13227076927693 -0.71667410691069  0.76540022332233
 1  12.35631778577858 -0.07022524312431 -0.77950094759476
 1  13.35305017501750  2.00598014301430 -0.41701060566057
 1  12.65977802260226  1.70356460776078  1.48840462986299
 1  14.56267769356936 -0.25313282928293 -0.28812700390039
 1  14.74785468536854  0.81563195869587  2.78899167216722
 1  14.39129640314031 -1.14733240514051  2.16922442054205
 1  15.94156118921892 -0.44124770787079  1.76036251395139
 1  15.85080621552155  1.98862885628563 -0.34396437113711
 1  16.05667970057006  2.06709624512451  0.88467679087909
 1  17.47632894799480  0.18306147674767  0.75676586328633
 1  17.04006153035303  0.34081225042504 -0.48388976637664
 1  18.16691169826983  2.47591413921392 -0.79918290659066
 1  18.75651564766477  2.31479538643864  0.61470814131413
 1  19.77233979517952  0.36669951615162  0.37265061586159
 1  19.38795711371137  0.95705075467547 -2.36093821902190
 1  20.43738802880288  0.02966116431643 -1.99520365376538
 1  18.62546527352735 -0.47183490189019 -1.57179525422542
 1  21.78956573517351  1.91743132223222  0.41343209680968
 1  21.89134687498750  1.88164474717472 -1.15075779077908
 1  20.41057771067107  2.70558804600460 -0.88973376967697
 1  0.29823419831983 -4.76538928832883  2.23621196919692
 1 -1.63111279227923 -5.28592586628663  3.41997263386339
 1 -0.53734774807481 -3.17105558265827  3.51344549774977
 8 -11.59578795309531  3.79631443064306 -1.30377219091909
 1 -12.97117762926293  2.14747598769877 -1.31015162016202

