%nproc=4
%Mem=2GB
# td=(NStates=1) iop(3/107=0140000000,3/108=0140000000) iop(3/107=0140000000,3/108=0140000000) CAM-B3LYP/6-31G(d,p) 

TD

0 1
12 -6.68748132023202  0.56720586468647  0.09917753725373
 6 -4.51729883638364 -2.17958638043804  0.45294557155716
 6 -4.17793960936094  2.80083171627163  0.95587846944694
 6 -8.94702740744074  3.21135515961596 -0.16513601530153
 6 -9.35850394799480 -1.66401943154315 -0.66796685538554
 7 -4.78936400830083  0.24763416111611  0.69348838093809
 6 -3.98111537713771 -0.94939464626463  0.73770432583258
 6 -2.45211863046305 -0.68656041524152  1.14320638293829
 6 -2.40889085488549  0.83058320712071  1.24649681218122
 6 -3.79870613351335  1.40384046924693  0.94784955965597
 6 -1.96905319101910  1.16130792669267  2.71970653345335
 6 -1.63699244764476 -1.28444100750075 -0.16515518921892
 6 -0.11711983028303 -1.28207991459146  0.35892496599660
 6  0.75490656985699 -1.44982221912191 -0.83576174997500
 8  0.41268133623362 -1.10891350385039 -1.96799778997900
 8  1.80162044864486 -2.14155445404540 -0.45353027552755
 7 -6.61027276947695  2.58254862486249  0.31436518441844
 6 -5.44904546544655  3.25799444264426  0.67519381558156
 6 -5.78794300950095  4.81707139193919  0.72381725032503
 6 -7.07932864626463  4.79028511901190  0.35486206950695
 6 -7.59681138503850  3.58988779717972  0.16887171857186
 6 -4.68773369366937  5.82678010851085  1.07914558255826
 6 -8.04905646694669  6.16370329042904  0.61187071077108
 8 -7.31861577777778  7.19354097069707  0.43688154495450
 7 -8.64733828732873  0.89857071627163 -0.43011566066607
 6 -9.41480515291529  2.01854658995900 -0.64568562086209
 6 -10.78321495179518  1.75630550165017 -0.79026480768077
 6 -10.98402275977598  0.25297620202020 -1.00482133763376
 6 -9.58763042634263 -0.25485364856486 -0.80641271797180
 6 -12.01125790109011  2.74216040914091 -0.95712036283628
 6 -12.12999612011201 -0.54361792409241 -1.28336647034703
 6 -12.12401926402640 -0.73643580878088 -2.74214700940094
 7 -6.98097458035804 -1.38806136743674 -0.15246789128913
 6 -8.07721038263826 -2.26864686138614 -0.43941713971397
 6 -7.72759034413441 -3.68473579597960 -0.32157316741674
 6 -6.28536415761576 -3.67105626652665 -0.27839610021002
 6 -5.88176446514651 -2.30570938543854 -0.02354617031703
 6 -8.76897542104210 -4.73779115691569 -0.65989880578058
 6 -5.03770997549755 -4.48019381748175  0.06431445714571
 8 -4.86711846054605 -5.66436697499750 -0.01595108850885
 6 -3.90717444284428 -3.46599715891589  0.51199584678468
 6 -3.39967347824782 -3.85137131263126  1.70734044704470
 8 -3.81145638573857 -4.01298803360336  2.92376104590459
 8 -1.98944061896190 -3.98667497279728  1.61432137133713
 6 -1.29774829692969 -4.24022911301130  2.82758718391839
 6  3.02525441824182 -2.28484366126613 -1.29062030613061
 6  4.07677144454445 -1.20197719881988 -0.83157869016902
 6  5.15238599399940 -1.00259713111311 -1.69766596819682
 6  5.33711769556956 -1.78067120182018 -2.99441642384238
 6  6.15252907750775  0.00016236333633 -1.21162772127213
 6  7.34640333433343 -0.49815559765977 -0.60350708800880
 6  8.51583414371437  0.37413304790479 -0.45280376087609
 6  9.75744883428343 -0.21868878917892  0.03917561186119
 6  9.54969248554855 -0.92488130283028  1.40715508430843
 6  10.84729705970597  0.86164101830183  0.22338717711771
 6  12.22439771027103  0.22750405760576  0.23973228442844
 6  13.38211975457546  1.09368664336434  0.03328622702270
 6  14.74132046724672  0.43102638073807  0.35202986508651
 6  15.00767575567557  0.09513723322332  1.84313423742374
 6  15.85988561696170  1.32393729572957 -0.10005680038004
 6  17.30873035113511  0.82944816921692  0.11227435353535
 6  18.24672421982199  1.73465065626563 -0.59333948074807
 6  19.86139834093409  1.13984247904790 -0.35473555725573
 6  19.94811461276128  0.13923935423542 -1.50787657885789
 6  20.65856302520252  2.34768618661866 -0.45208030393039
 1 -3.18047868616862  3.39023027402740  1.04565396709671
 1 -9.74532851535153  4.03259234433443 -0.19804343824382
 1 -9.95669816141614 -2.41447184648465 -0.92115494139414
 1 -2.69241175797580 -1.22214983278328  2.25006505480548
 1 -1.69053839243924  1.18281875807581  0.62318877227723
 1 -1.16139752345235  0.68406672107211  2.77332804390439
 1 -1.66045421932193  2.33397197359736  2.76535265306531
 1 -2.39315164766477  0.78039592489249  3.59579544864487
 1 -2.24089310961096 -2.79312058505851 -0.15909369616962
 1 -2.01974714371437 -0.48433990689069 -1.04629442024202
 1  0.05533353165317 -0.17840927422742  1.06485235043504
 1 -0.06085980578058 -2.00714704850485  0.83092332443244
 1 -3.64737926832683  5.99243707160716  0.52942790049005
 1 -4.87392767336734  6.94017669356936  0.70555746184618
 1 -4.69747077527753  5.84993395439544  2.24793256555656
 1 -9.02071508560856  5.81472658185819  0.48762238643864
 1 -12.15405495909591 -1.54697556505651 -0.62250667786779
 1 -13.17370358535853  0.15434183398340 -1.03739137553755
 1 -13.08208603170317 -1.14253636903690 -3.12142926002600
 1 -12.10278724252425  0.25809323082308 -3.30866303580358
 1 -11.33178000240024 -1.59078239523952 -3.08943555095510
 1 -8.99385856915691 -4.94487104270427 -1.74431665966597
 1 -8.34471968656866 -5.62748276087609 -0.36885653755376
 1 -9.71452873287329 -4.48621058225823  0.26211082058206
 1 -3.39699928132813 -3.66360008490849 -0.39560786758676
 1  3.82948456385639 -3.49521679547955 -1.08460417751775
 1  2.70988527732773 -2.08919483448345 -2.38990922622262
 1  3.84551187888789 -0.44226697509751  0.19497309890989
 1  4.93324638163816 -0.87253072557256 -3.84150426542654
 1  6.37105068346835 -1.69707838323832 -3.35375659955996
 1  4.90940476787679 -2.81845445974598 -3.28756294009401
 1  6.49907032893289  1.02827816521652 -1.81506412361236
 1  5.56850195959596  0.44428997679768 -0.38354261766177
 1  7.11709288818882 -0.97527572467247  0.37069879147915
 1  7.99818521692169 -1.38803759405941 -1.28834831073107
 1  8.84200633203320  0.94586518131813 -1.64195698099810
 1  8.00886938503850  1.21680686888689  0.15190089848985
 1  10.07013946104611 -0.77596504020402 -0.45452260986099
 1  8.55542778707871 -1.45729454515452  1.52816117691769
 1  10.46286235563556 -1.63218709990999  1.52052394379438
 1  9.58325153675368 -0.29660088248825  2.32925423052305
 1  11.03466710451045  1.38545130503050 -0.62338951055106
 1  10.86937668426843  1.44724359996000  0.74706858715872
 1  12.13627116931693 -0.29132157165717  1.28676235953595
 1  12.36526868086809 -0.86114433503350 -0.52347534503450
 1  13.14869973997400  1.60734027902790 -0.71513041764176
 1  13.21173321812181  2.11627587888789  0.80195598499850
 1  14.74120554635464 -0.51818933493349 -0.26016420762076
 1  15.15413531343134  0.78815921142114  2.51888466146615
 1  14.07113438693869 -0.23412108400840  1.84379187728773
 1  15.78375540864086 -0.67576115921592  1.98693517121712
 1  15.51146228112811  1.60848084148415 -1.10440041474147
 1  15.93162719531953  2.31807134263426  0.36492481568157
 1  17.89871118621862  0.63121629222922  1.23111329802980
 1  17.59265678987899 -0.41292312311231 -0.45285666306631
 1  18.04838984608461  1.86590313811381 -1.71289427772777
 1  18.13691368746875  2.66482038893889  0.14271094159416
 1  20.04043660486049  0.86177902410241  0.58316166696670
 1  19.73198151615161  0.41260631023102 -2.40866299149915
 1  20.96608089808981 -0.42898470027003 -1.50201433483348
 1  19.32721544854486 -0.71700941934193 -1.33616169086909
 1  20.68244502310231  2.35009458855886  0.54675542914291
 1  21.70426816711672  2.19211579427943 -0.51467418241824
 1  20.17620427332733  2.72801028822882 -1.16809160546055
 1 -0.17759338443844 -3.90302305170517  2.66008435643564
 1 -1.42187186818682 -5.34956222992299  3.18077871447145
 1 -1.57326133943394 -3.58143662076208  3.74114826802680
 8 -11.60798917321732  3.99175397459746 -0.96471828552855
 1 -13.04495500700070  2.40789202930293 -0.94204480948095

