%nproc=4
%Mem=4GB
# td=(NStates=1) iop(3/107=0140000000,3/108=0140000000) iop(3/107=0140000000,3/108=0140000000) CAM-B3LYP/6-31G(d,p) 

TD

0 1
12 -5.55781728832883  1.27307218151815  0.16861546674667
 6 -5.10316070327033 -2.08992745604560 -0.26826369316932
 6 -3.40430922002200  1.12873315811581  2.73529890319032
 6 -6.23741253695370  4.42833609780978  0.61075128392839
 6 -7.90945671277128  1.21877272797280 -2.45158283178318
 7 -4.41883613691369 -0.33075126692669  1.07117845664566
 6 -4.28708223572357 -1.61403510511051  0.72413476307631
 6 -3.19769289378938 -2.36396969976998  1.45715007870787
 6 -3.00562373337334 -1.30404329522952  2.75945250135014
 6 -3.56376380378038 -0.10222284998500  2.18356294149415
 6 -3.42596563596360 -1.64207764916492  3.96572927232723
 6 -1.97652284548455 -2.63600100940094  0.68467377287729
 6 -1.00914255775578 -3.49939752035204  1.43423701170117
 6  0.32589769026903 -3.83179702040204  0.61132932763276
 8  0.40139020332033 -3.48688600220022 -0.53433966816682
 8  1.05546239193919 -4.65728534583458  1.25956056335634
 7 -4.98206902320232  2.55488486538654  1.52544277597760
 6 -3.98876096589659  2.36486390809081  2.42157276057606
 6 -3.71223072677268  3.67292579477948  3.10616117231723
 6 -4.59152970567057  4.59778130643064  2.58228750005001
 6 -5.33461956615661  3.94310240544054  1.50762685498550
 6 -2.71200656375638  3.83723109890989  4.19267345674568
 6 -4.71536806740674  5.97736515701570  2.98560806560656
 8 -4.05680572857286  6.58742663066307  3.87426132603260
 7 -6.85133893379338  2.57914781058106 -0.77368902520252
 6 -6.97289000380038  3.91978159535954 -0.36380806950695
 6 -7.92415760216022  4.65991271607161 -1.26291040054005
 6 -8.41527098039804  3.63771070097010 -2.12295123952395
 6 -7.73748263876388  2.36212222102210 -1.72083803030303
 6 -8.21899489038904  6.02430233963396 -1.17049655845585
 6 -9.36926128942894  3.83153355155516 -3.23972860566057
 6 -8.72446390009001  4.20853900010001 -4.55715211921192
 7 -6.36303472247225 -0.11284630233023 -0.98092318431843
 6 -7.26910644024402  0.02414634603460 -2.03558776947695
 6 -7.60745825302530 -1.32768447204720 -2.65278780138014
 6 -6.67287683648365 -2.15251482328233 -2.11232739843984
 6 -5.94235265066507 -1.41668523362336 -1.10332646304630
 6 -8.54797025482548 -1.63469359535954 -3.79215611181118
 6 -6.28032169926993 -3.67115269916992 -1.92383593869387
 8 -6.73601799729973 -4.60317801620162 -2.58540480558056
 6 -5.10385894799480 -3.53522157475748 -0.81697401720172
 6 -5.34806228362836 -4.76870231133113  0.13959763156316
 8 -5.88902467406741 -4.56532554065407  1.25743210661066
 8 -4.94158385658566 -5.88649984638464 -0.38661180578058
 6 -5.33443100730073 -7.16148800210021  0.32604443424342
 6  2.28373934713471 -4.97803892409241  0.62216617101710
 6  3.43686822182218 -4.01070123102310  0.92379027882788
 6  4.08426781698170 -3.25129799989999  0.13991762676268
 6  3.77722206110611 -2.94257919921992 -1.32757226172617
 6  5.12914934073407 -2.25455050265027  0.61457525632563
 6  6.49852472377238 -2.57258018321832  0.00943241064106
 6  7.62773809740974 -1.81975133063306  0.67136282678268
 6  8.93843466476648 -1.86073090669067 -0.03185096759676
 6  9.56786316801680 -3.36652729312931  0.22677922022202
 6  10.05163574267427 -0.89725996339634  0.40508302380238
 6  11.41784908730873 -0.90315992289229 -0.29583835003500
 6  12.33042073067307  0.23739836733673  0.25063191079108
 6  13.57679013481348  0.48971384128413 -0.58049281248125
 6  14.60727902690269 -0.75327473007301 -0.45975012591259
 6  14.21501744134413  1.81620779237924 -0.23494274907491
 6  15.52233642404240  2.08276630483048 -0.97798279327933
 6  16.01535411981198  3.53608836163616 -0.61677229042904
 6  17.28380362946295  3.85257309890989 -1.39388332353235
 6  17.20034262396240  3.97568245994599 -2.79928215241524
 6  17.94902430853085  5.09701496679668 -0.78172763166317
 1 -2.69557528032803  1.29516379177918  3.56883735213521
 1 -6.29677765656566  5.58395377577758  0.79838883058306
 1 -8.57202760996100  1.15067537043704 -3.28119359815982
 1 -3.75516658145815 -3.22832814821482  1.81331939273927
 1 -1.74747187108711 -1.19271693329333  2.77249852595260
 1 -2.83293307240724 -2.38084124532453  4.52615615961596
 1 -3.57395818851885 -0.87253715811581  4.66752878267827
 1 -4.48250076177618 -2.11729080998100  4.02063601410141
 1 -2.49644495819582 -3.32055157245725 -0.27436806060606
 1 -1.55428326072607 -1.78408752505251  0.16502462406241
 1 -0.48320375387539 -2.96699799539954  2.33724794349435
 1 -1.32164688628863 -4.48822595379538  1.85125692369237
 1 -1.77525763956396  3.36072559695970  4.00423633333333
 1 -2.60949193929393  4.76747395339534  4.51330758845885
 1 -3.08759175417542  3.45498649614961  5.27983298929893
 1 -5.25343840774077  6.51944613901390  2.40684600600060
 1 -9.88157729122912  3.00617127422742 -3.41289454115411
 1 -10.00243104100410  4.69033287738774 -3.01634192489249
 1 -9.53556335613561  4.46478489248925 -5.33091829412941
 1 -8.10325983538354  5.02326207160716 -4.31332128712871
 1 -8.14828467746775  3.52311166996700 -4.98677860266027
 1 -8.34919250885089 -1.10861140404040 -4.83242424072407
 1 -8.37405838883888 -2.59947335243524 -4.23315595259526
 1 -9.62549262876288 -1.49067589098910 -3.46298320502050
 1 -4.09752711011101 -3.59877470407041 -1.49543283018302
 1  2.59018015101510 -5.97582552555256  0.96979293619362
 1  2.22839358275828 -4.98584556065606 -0.59612306190619
 1  3.62126424872487 -4.15236451825183  2.07166217381738
 1  2.66039102580258 -3.31035665676568 -1.66074861586159
 1  4.02461707500750 -1.92714627392739 -1.59713218371837
 1  4.25693786778678 -3.46218994819482 -1.91544046994699
 1  4.97712775367537 -1.14684110811081  0.49378126162616
 1  5.26111463876388 -2.27329896229623  1.83183806410641
 1  6.47750527722772 -3.74182737483748  0.31501938593859
 1  6.34014417481748 -2.50052766176618 -1.00969156465647
 1  7.35473440474047 -0.77845117021702  0.47908515401540
 1  7.48453055595560 -1.84006058915892  1.81508589388939
 1  8.82015612491249 -1.84367264246425 -1.04276761486149
 1  8.66212073077308 -4.11459023042304 -0.15821961436144
 1  10.44031337213721 -3.62266646874687 -0.41846195969597
 1  9.76274533593359 -3.45850694219422  1.21518196089609
 1  9.71789093969397  0.19337506370637  0.28341370517052
 1  10.21250134763476 -1.09709624352435  1.51553109310931
 1  11.97719286058606 -1.70722075397540 -0.42379675287529
 1  11.13511959865987 -0.59800270517052 -1.32742407600760
 1  11.58771980548055  1.03197762696270  0.05474591939194
 1  12.32113693699370  0.13087427882788  1.31314959515952
 1  13.32179898059806  0.57863229552955 -1.57013925262526
 1  14.72175151345134 -1.04392260496050  0.49608528852885
 1  14.06705227622762 -1.82762177847785 -0.91569789128913
 1  15.48873986238624 -0.62932613081308 -1.16331322382238
 1  13.66028422262226  2.68908352745275 -0.28751053875388
 1  14.32488918921892  1.83873416261626  0.77576479037904
 1  16.34405606140614  1.25499411211121 -0.62317880858086
 1  15.44753033643364  1.60744465726573 -2.09999137883788
 1  15.37158856345635  4.19910528852885 -1.06774877297730
 1  16.02385515561556  3.81196783818382  0.56788668906891
 1  18.06528020942094  2.90403189438944 -1.09869894949495
 1  16.46282700310031  4.62161869076908 -2.85528788858886
 1  18.14121004450445  4.16272578587859 -3.39213381848185
 1  16.82812301250125  3.07019808980898 -3.25259329392939
 1  17.92991903910391  4.84896611411141  0.40534219841984
 1  18.95981350365037  5.17532168436844 -1.19151606600660
 1  17.41048259915992  6.14311381448145 -0.79262332363236
 1 -4.79484478587859 -7.87807724082408 -0.39552309000900
 1 -6.36527095739574 -7.19044613121312  0.29018252575258
 1 -4.75746391499150 -7.17382895849585  1.36508096469647
 8 -7.84486207780778  6.76808330913091 -0.34611239523952
 1 -8.79473777087709  6.27165281018102 -2.16997268006801

