%nproc=4
%Mem=4GB
# td=(NStates=1) iop(3/107=0140000000,3/108=0140000000) iop(3/107=0140000000,3/108=0140000000) CAM-B3LYP/6-31G(d,p) 

TD

0 1
12 -5.64496600320032  1.20927580188019  0.14992359755976
 6 -5.10042042924292 -2.13494195749575 -0.28109497629763
 6 -3.40068885798580  1.18250853565357  2.78965433873387
 6 -6.21950074577458  4.51860512471247  0.64500470927093
 6 -7.92198796589659  1.25795664636464 -2.44217189068907
 7 -4.40403465676568 -0.24958315011501  1.06320765956596
 6 -4.23496702420242 -1.63047674927493  0.68210055965597
 6 -3.30668379287929 -2.40458376117612  1.53315767946795
 6 -2.93582675367537 -1.27381027192719  2.60877743384338
 6 -3.64792221962196 -0.00612324002400  2.14271885708571
 6 -3.31269430883088 -1.62675611701170  4.00007270667067
 6 -2.07756294949495 -2.73541095039504  0.70667597309731
 6 -1.07867951145115 -3.59281686228623  1.48864245224522
 6  0.19234433493349 -3.88319215991599  0.62470066476648
 8  0.41368143244324 -3.43158047164717 -0.53199943414341
 8  1.04222106780678 -4.74485410271027  1.24071867916792
 7 -4.94959577587759  2.60996037293729  1.51164139583958
 6 -3.92814490429043  2.38840626232623  2.40384098739874
 6 -3.76846635033503  3.64074257645765  3.21328188438844
 6 -4.49485003770377  4.61844337263726  2.47660693199320
 6 -5.22729883408341  3.98963705890589  1.42893898619862
 6 -2.82404776787679  3.89202657845785  4.30655484488449
 6 -4.59356588718872  6.08445586608661  2.90792029682968
 8 -3.94543459145915  6.47618550655065  3.87264116401640
 7 -6.90501430133013  2.63021291709171 -0.72841449774977
 6 -6.87853056785679  4.01731134833483 -0.42507419611961
 6 -7.86144133053305  4.67234395919592 -1.29781389088909
 6 -8.45055450875087  3.67772470237024 -2.11801074547455
 6 -7.79176806730673  2.41044705350535 -1.84308025452545
 6 -8.24796778767877  6.06221613101310 -1.15334484328433
 6 -9.47235159845985  3.78822922112211 -3.11994662746275
 6 -8.71712316601660  4.17556570277028 -4.43806021002100
 7 -6.45029344834483 -0.19437445514551 -1.05456054805481
 6 -7.31184071367137 -0.01595766436644 -2.08398260896090
 6 -7.54395190239024 -1.31448315191519 -2.72127465006501
 6 -6.67337688648865 -2.23579315111511 -1.97168333403340
 6 -6.05685410081008 -1.44009757485749 -1.03898002840284
 6 -8.61694715251525 -1.66287641364136 -3.69048594479448
 6 -6.22337600470047 -3.63121870577058 -1.98847240234023
 8 -6.61490588608861 -4.61381908030803 -2.54913117821782
 6 -5.00712927502750 -3.56263431603160 -0.87285960576058
 6 -5.25223270067007 -4.64837027812781  0.10817448924893
 8 -5.68255402700270 -4.50041905000500  1.24129049244924
 8 -4.85795549374938 -5.84525572197220 -0.45914905950595
 6 -5.14100166436644 -6.92098395169517  0.25337716751675
 6  2.26612758595860 -5.09172029222922  0.55881983638364
 6  3.38797333233323 -4.29941010191019  0.97548544834483
 6  3.99739913011301 -3.30386325642564  0.14554818981898
 6  3.71772611151115 -3.10701564286429 -1.38444794929493
 6  5.17496392219222 -2.41132618021802  0.77692149094909
 6  6.48346321762176 -2.66653957915792  0.01641310871087
 6  7.62059738333833 -1.76813616911691  0.47912360286029
 6  8.99328014931493 -1.94302913651365 -0.12212999549955
 6  9.41787816951695 -3.47385802620262  0.25888243054305
 6  10.04579515861586 -0.82681291869187  0.40857337283728
 6  11.31790909330933 -0.73666327322732 -0.37311607780778
 6  12.22245993459346  0.35521014851485  0.12528937653765
 6  13.60168262406241  0.46784165406541 -0.53193795699570
 6  14.48054635363536 -0.67765716831683 -0.10554470537054
 6  14.20448638823882  1.78904507610761 -0.15427468226823
 6  15.48450264066406  2.15589361756176 -0.99085408040804
 6  16.07885046944694  3.48951370417042 -0.72230284348435
 6  17.33742899199920  3.95214305590559 -1.36052998819882
 6  17.23879646934693  3.88781367306731 -2.85564778897890
 6  17.82455186128613  5.17684294959496 -0.76008546744674
 1 -2.62677840064006  1.22506678207821  3.54975544394439
 1 -6.30971895069507  5.61006638703870  0.89733872557256
 1 -8.74265467266727  1.04831513441344 -3.23251873067307
 1 -3.87699876467647 -3.20973628902890  2.04300236103610
 1 -1.76666379027903 -1.25133279487949  2.55755703180318
 1 -2.51657143624362 -2.50017317851785  4.14929847384739
 1 -3.23057385008501 -0.82284218861886  4.77501953175318
 1 -4.33698621032103 -1.90569965086509  3.78726267676768
 1 -2.22381769546955 -3.46506602390239 -0.14625524932493
 1 -1.58844667706771 -1.91603071937194  0.18542666426643
 1 -0.66057149064907 -3.12472376797680  2.28485270397040
 1 -1.55680040164016 -4.51273840504050  1.67919971797180
 1 -1.89879999379938  3.21664118851885  4.21115702540254
 1 -2.48940993109311  4.98276548254826  4.47939419711971
 1 -3.26775977097710  3.53682467996800  5.44237924392439
 1 -5.61302436633663  6.67845203960396  2.36374169556956
 1 -10.05756488998900  2.68428908600860 -3.18598184988499
 1 -10.26424722262226  4.59757360146015 -2.89810010071007
 1 -9.36965676547655  4.35967438143814 -5.33261846414641
 1 -8.15844535393539  5.10172991839184 -4.48897885288529
 1 -8.03666351535153  3.48103746254625 -4.93974389918992
 1 -8.52991058065806 -0.90927147004700 -4.70145114341434
 1 -8.77666864986499 -2.73750715581558 -4.03487612461246
 1 -9.49520960046005 -1.46875369876988 -3.23397030373037
 1 -4.14553191059106 -3.84281910851085 -1.56094938183818
 1  2.35070620362036 -6.09419736273627  0.89811576847685
 1  2.25178592199220 -5.06415339143914 -0.48669211881188
 1  3.66055817811781 -4.25129441124112  2.07214222182218
 1  2.60246523322332 -3.24096971807181 -1.37106964796480
 1  4.02805741904190 -2.09119267856786 -1.68309077957796
 1  4.16042821682168 -3.87753148234823 -1.82054097999800
 1  4.90082012291229 -1.24591101510151  0.59264114761476
 1  5.36159468676868 -2.50141177357736  1.74738961926193
 1  6.80756828352835 -3.76253944604460  0.15727361136114
 1  6.42407256765676 -2.78297590659066 -1.05463605910591
 1  7.28145707700770 -0.70324364946495  0.32198944444444
 1  7.65161726462646 -1.85230181328133  1.57382176747675
 1  8.96160026932693 -2.11658993419342 -1.24369770787079
 1  8.79997451615161 -4.19109788118812  0.07346355395540
 1  10.39539888068807 -3.62431663376338 -0.23773388688869
 1  9.51192025342534 -3.36816790829083  1.47190763346335
 1  9.49515866646665  0.16739246544655  0.12421778557856
 1  10.11196129362936 -0.77421395529553  1.36029556955696
 1  11.97209235053505 -1.62590262216222 -0.17283165636564
 1  11.22517860456046 -0.61148405330533 -1.46930826442644
 1  11.62606363986399  1.27984241344134 -0.19400895609561
 1  12.27310213351335  0.37741893329333  1.32702098229823
 1  13.52775957665767  0.29594402670267 -1.77741998069807
 1  14.43810314861486 -0.76873508620862  0.97999367936794
 1  14.03358892989299 -1.59053807010701 -0.61434775627563
 1  15.46461745014502 -0.78427162536254 -0.46386327882788
 1  13.42869106330633  2.45278989808981 -0.29892167986799
 1  14.41919862016202  1.71647193639364  0.88414562846285
 1  16.28653030883088  1.46419503220322 -0.85541203190319
 1  15.10025560896090  1.90608452125213 -2.16239761946195
 1  15.45716712131213  4.39074445244524 -0.59279127722772
 1  16.27771054115412  3.41442808420842  0.38651855225523
 1  18.18029171057105  3.19231072227223 -1.07480656025603
 1  16.39284000440044  4.48545507440744 -3.23874623442344
 1  18.18959488298830  4.51310082338234 -3.27816242134213
 1  17.13345354555456  2.93912498249825 -3.27677571217122
 1  17.78550459765976  5.23746496399640  0.30747241144114
 1  18.82704022632263  5.70997514971497 -1.00121703610361
 1  17.16389794069407  5.85397490059006 -0.99257331863186
 1 -4.90802610401040 -7.77666709980998 -0.30708424612461
 1 -6.29695412571257 -7.25667275387539  0.84176768426843
 1 -4.55375354395440 -7.08473004860486  1.30232468906891
 8 -7.82432002360236  6.80816731753175 -0.32169995399540
 1 -9.02364066116612  6.52814845974597 -1.97884356715672

