%nproc=4
%Mem=2GB
# td=(NStates=1) iop(3/107=0140000000,3/108=0140000000) iop(3/107=0140000000,3/108=0140000000) CAM-B3LYP/6-31G(d,p) 

TD

0 1
12 -6.96039861196120  0.62968211231123  0.15083270277028
 6 -4.48278538503850 -2.01073949574958  0.43159343634363
 6 -4.55192700810081  2.80502213531353  0.91836471807181
 6 -9.00882358705871  3.15684970907091 -0.21014051575158
 6 -9.41850994859486 -1.89707273687369 -0.57285734443444
 7 -4.87321239313931  0.43320271797180  0.74012304440444
 6 -4.06453371897190 -0.72210191699170  0.54233478887889
 6 -2.52341576017602 -0.47640940014001  0.99561162346235
 6 -2.47985795159516  1.04522467126713  1.24583674617462
 6 -4.09747601050105  1.45663574877488  0.88954372907291
 6 -1.93143942964296  1.39538133403340  2.57212177497750
 6 -1.63491223962396 -0.80826338973897 -0.31129980368037
 6 -0.18233635193519 -1.06401810841084  0.07147622112211
 6  0.80481156035604 -1.18458569546955 -1.02691086488649
 8  0.84512458055806 -0.79599221172117 -2.20707169736974
 8  1.92727301390139 -1.90649094769477 -0.56047096959696
 7 -6.90219196139614  2.59719008900890  0.39545329322932
 6 -5.77224778567857  3.26089473267327  0.67812410861086
 6 -5.96522073727373  4.79237892269227  0.60220508910891
 6 -7.30018073147315  4.95976206670667  0.37869445274527
 6 -7.79110081398140  3.48764757315732  0.15182001340134
 6 -4.93087800810081  5.78283571407141  0.79547721572157
 6 -8.11201276257626  6.16711363146315  0.23314283798380
 8 -7.57043095929593  7.26655827242724  0.30118797559756
 7 -8.86474002750275  0.60049090829083 -0.34444709380938
 6 -9.61764543694370  1.88081281658166 -0.37599865216522
 6 -11.00239686998700  1.43120299139914 -0.51321710291029
 6 -11.06312066956696  0.02318322272227 -0.73676453195320
 6 -9.77735939923992 -0.54569273247325 -0.52839491619162
 6 -12.16800357565756  2.36946313941394 -0.66141079187919
 6 -12.20598371887189 -0.69057261956196 -1.23096122982298
 6 -12.05774263636364 -1.27810997619762 -2.58004079877988
 7 -6.96638312121212 -1.47016957825783 -0.13088573307331
 6 -8.17606026762676 -2.26859685638564 -0.38671186918692
 6 -7.72791037613761 -3.67169449184918 -0.27894890499050
 6 -6.26135175637564 -3.64024318521852  0.05326706610661
 6 -5.78247453615362 -2.22739155365537  0.04270045434543
 6 -8.55617414091409 -4.93075045284528 -0.65807862376238
 6 -5.09043524802480 -4.47900369846985  0.11317934363436
 8 -4.80652240094009 -5.71457199549955  0.18824933153315
 6 -3.95808953435344 -3.32148270747075  0.45973062026203
 6 -3.27750126102610 -3.77422359785979  1.85082479547955
 8 -3.96915215531553 -3.85395213001300  2.79549821962196
 8 -1.87578925382538 -3.54629093439344  1.69703964316432
 6 -0.96027454955496 -3.97199228932893  2.88731315651565
 6  3.03889578237824 -1.98496367326733 -1.55658690279028
 6  4.11057482488249 -0.89920692179218 -1.17782331463146
 6  5.08590934633463 -0.73577044844484 -1.91580778237824
 6  5.52366635043504 -1.34337747244724 -3.24270125232523
 6  6.14790861546155  0.34530687778778 -1.44702126062606
 6  7.38660735473547 -0.38085386748675 -1.04695143244324
 6  8.49947250755075  0.53456909150915 -0.63092157265727
 6  9.80567365676568 -0.18717563786379  0.00090178447845
 6  9.52799031533153 -0.60778959365937  1.68900326912691
 6  11.11287361736174  0.73624847904790 -0.16898205980598
 6  12.45256052655266  0.01560286748675  0.35327363856386
 6  13.52882442504250  1.04801207590759  0.45945884428443
 6  14.91905824102410  0.15425870397040  0.48780344244424
 6  15.08610359845985 -0.40870315081508  1.94716464046405
 6  16.17872750115012  1.10243514551455  0.26820002530253
 6  17.53140261836183  0.37482270667067  0.09319244534453
 6  18.67573712111211  1.45031222242224 -0.21710185698570
 6  20.01069327042704  0.67388588338834 -0.15063514721472
 6  20.21393119441944 -0.14606917661766 -1.50083587478748
 6  21.19145631453145  1.80919233723372 -0.17488258415842
 1 -3.72798343664366  3.54933618461846  1.07547694939494
 1 -9.62455643814381  4.12897198229823 -0.26053968786879
 1 -10.37058955055505 -2.57607800710071 -0.65777860376038
 1 -1.98367088388839 -0.80321793959396  1.60719076737674
 1 -1.92683202180218  1.45015549174918  0.41217767116712
 1 -0.53171455515552  0.96406472087209  2.90690140124013
 1 -1.69670784468447  2.43707228362836  2.83618973677368
 1 -2.77068940144014  0.67065495079508  3.37049291839184
 1 -2.21282030233023 -1.59815108810881 -0.85423321012101
 1 -1.85280044904490 -0.28240971387139 -1.14309410021002
 1 -0.04835683738374 -0.25662709600960  0.76408227342734
 1 -0.04177789758976 -1.83059939373937  0.56553678577858
 1 -4.25789031943194  5.65283311121112 -0.22967801010101
 1 -5.72527280788079  6.65870854675468  0.73196010211021
 1 -4.38679970817082  5.78922788378838  1.87257502980298
 1 -8.99841285538554  5.93877898709871 -0.11022739853985
 1 -12.35773532713271 -1.80689155665567 -0.75732015921592
 1 -13.27286350135013 -0.10214381458146 -1.11106874327433
 1 -12.40665848894890 -2.42134424982498 -2.88084520162016
 1 -12.76372333613361 -0.34405698419842 -3.28397056655666
 1 -10.88682550695069 -1.59795311231123 -2.80286689408941
 1 -9.20972015531553 -4.68377493309331 -1.64855708370837
 1 -7.86406162076208 -6.01392140474047 -0.68478813071307
 1 -9.24563184318432 -5.25861782298230  0.33635824532453
 1 -3.28016759815982 -3.31542526742674 -0.42643094989499
 1  3.36175779117912 -3.03746101990199 -1.32829854695470
 1  2.62428671747175 -2.25401131613161 -2.69123935923592
 1  3.55728305600560 -0.44951770017002 -0.20378677707771
 1  4.83108616561656 -0.97290076257626 -4.08613872887289
 1  6.61249482788279 -1.00750942634263 -3.67350857475748
 1  5.48984281168117 -2.36312892719272 -3.17374155795580
 1  6.38625904780478  0.98571390879088 -2.38088070527053
 1  5.87689279867987  1.23368891669167 -0.59575383878388
 1  7.16297747664767 -1.22468066516652 -0.26982526092609
 1  7.51797719611961 -0.85763455375537 -1.95914539043904
 1  8.94233636503650  1.18957955275528 -1.34800758605861
 1  8.04378287638764  1.27364255245525  0.41055676407641
 1  9.86198864596460 -1.13985142884288 -0.64996215381538
 1  8.61852409670967 -1.31167998369837  1.89896825762576
 1  10.38009407880788 -1.32912679387939  1.80978286968697
 1  9.40967417901790  0.49313809140914  2.17875918101810
 1  11.30754439223922  1.37780053995400 -1.23492066366637
 1  10.69789953655365  1.53395227082708  0.47927180748075
 1  12.34430197239724 -0.36814925442544  1.31740542384238
 1  12.41288344234423 -0.95261348194819 -0.24431742924292
 1  13.76963183318332  1.62684222922292 -0.55175408000800
 1  13.56822886768677  1.87496174747475  1.06744253365336
 1  14.94408583438344 -0.50447796379638 -0.21016920812081
 1  15.12072197209721  0.63005340084008  2.75743851685169
 1  14.18208548204820 -1.04615228712871  2.18562606070607
 1  15.79283631673167 -1.07523110621062  1.60487696539654
 1  15.81799293419342  1.78114810821082 -0.52425239993999
 1  15.96209024162416  1.70828036353635  1.14690301350135
 1  17.87218853395339  0.02578574917492  0.87147733443344
 1  17.47263478767877 -0.35286711751175 -0.69236061346135
 1  18.67513252035204  1.87363391119112 -1.29184217251725
 1  18.47378737483749  2.26715062196220  0.43518018851885
 1  20.37521008220822  0.24031687788779  0.50922427322732
 1  19.80003832183218  0.81661671127113 -2.40395252045204
 1  21.16380067006700 -0.32607440924092 -1.73251738513851
 1  19.98658138513851 -1.15849356775678 -1.18450652535254
 1  21.21858863746375  2.45695527462746  0.80940169376938
 1  22.21392913321332  1.39292587528753 -0.44571728672867
 1  21.14029068196820  2.45227271447145 -1.32510730703070
 1  0.43903827872787 -3.62757550695069  2.20693904190419
 1 -1.25910559155916 -5.32039931363136  2.79981061766177
 1 -1.33003701700170 -3.16540501760176  3.69691384458446
 8 -12.05034340864086  3.65253005220522 -0.65989780348035
 1 -13.27796830833083  1.88712995309531 -1.11695230023002

