%nproc=4
%Mem=2GB
# td=(NStates=1) iop(3/107=0140000000,3/108=0140000000) iop(3/107=0140000000,3/108=0140000000) CAM-B3LYP/6-31G(d,p) 

TD

0 1
12 -6.67313988608861  0.54101324542454 -0.03890627112711
 6 -4.57514462096210 -2.16633505530553  0.45521579857986
 6 -4.15930774617462  2.61912354545455  1.03706658825883
 6 -8.71767447214722  3.34214823892389 -0.31635113681368
 6 -9.28591668926893 -1.66406943654365 -0.64215427412741
 7 -4.82254732663266  0.26253565126513  0.59608864096410
 6 -4.21887915351535 -0.92201190799080  0.73318387378738
 6 -2.53647706630663 -0.79218097729773  1.10008207050705
 6 -2.53294326012601  0.62943309210921  1.36837900040004
 6 -3.98950521342134  1.28087817301730  0.85535030973097
 6 -2.39795608130813  1.04453624952495  2.86963152595259
 6 -1.70939968836884 -1.19002156555656 -0.08185685938594
 6 -0.11656977527753 -0.94037574417442  0.37737681118112
 6  0.75814689388939 -1.20888812571257 -0.80144831863186
 8  0.54418448654866 -0.85168778127813 -2.01701269146915
 8  1.87192747934793 -1.99451975057506 -0.48324324682468
 7 -6.51279302150215  2.48420879087909  0.38726247414741
 6 -5.35068562946295  3.19863850705070  0.77139343554355
 6 -5.74146836203620  4.59938962376238  0.74029889848985
 6 -7.00790150355036  4.84073016351635  0.52445902920292
 6 -7.57478918281828  3.46583539193919  0.06864169556956
 6 -4.69875479577958  5.76589401990199  1.04161182918292
 6 -7.77378894019402  6.21120804090409  0.25932545624562
 8 -7.38159207540754  7.08175979257926  0.77569542634263
 7 -8.63344689818982  0.68622948214821 -0.63040568966897
 6 -9.22776644904491  1.98212294759476 -0.72903395569557
 6 -10.61096772707271  1.64582445354535 -0.93273905510551
 6 -10.80888524602460  0.27243814821482 -1.10022087758776
 6 -9.55466713001300 -0.29049721292129 -0.76022809950995
 6 -11.79860663596360  2.70736692979298 -1.29345399619962
 6 -11.89079219971997 -0.42611617391739 -1.47101523522352
 6 -11.87195405750575 -0.91467363256326 -3.02935573027303
 7 -6.96183266616662 -1.41928448974897  0.01218857435744
 6 -8.06139880148015 -2.22589258595860 -0.38521171917192
 6 -7.67438502360236 -3.51599892229223 -0.48056906700670
 6 -6.40356597779778 -3.70843000390039 -0.10547880848085
 6 -6.02779906860686 -2.32610142464246  0.13179936423642
 6 -8.58080660416042 -4.62394977277728 -0.59641245714571
 6 -5.33376958145815 -4.53684948304831  0.18686671237124
 8 -5.24797654635464 -5.64019455775578  0.04807531413141
 6 -3.99455318071807 -3.53148370757076  0.54619926712671
 6 -3.62699621052105 -3.88523469896990  1.97114682768277
 8 -4.17139237933793 -3.95812254705471  3.02657132693269
 8 -2.30213188808881 -3.66481278657866  1.96862680188019
 6 -1.68292681478148 -3.82392748284828  3.27826225142514
 6  2.91298319111911 -2.23008818571857 -1.34986623072307
 6  4.00223399079908 -1.40512751385139 -0.91232676497650
 6  5.09354010941094 -0.97899477087709 -1.79390559215922
 6  5.32869685348535 -1.78564169886989 -3.06337331953195
 6  6.26734055865587 -0.20237789068907 -1.26726328482848
 6  7.45817451145115 -0.91047682978298 -0.71162790009001
 6  8.55584814511451  0.05774140874087 -0.36206468696870
 6  9.90360344974498 -0.55896281658166  0.06671836613661
 6  9.75898341464146 -1.03543235793579  1.35260962976298
 6  11.00646297629763  0.65760061426143 -0.01072623422342
 6  12.47671294179418 -0.01488018081808 -0.04860654945495
 6  13.42866440904090  1.15293256795680  0.17361025942594
 6  14.76207254245425  0.49532281038104  0.49959462156216
 6  14.79572456055605  0.16089380888089  1.91863178717872
 6  15.97291692009201  1.58071297329733  0.23171637693769
 6  17.28779825792579  0.93805903030303 -0.21838871277128
 6  18.36256580398040  1.96279347054705 -0.34069421622162
 6  19.84172637373737  1.27727622242224 -0.47823790749075
 6  19.76286608790879  0.64334976527653 -1.84831062226223
 6  20.94250141904190  2.36996841484148 -0.44809990589059
 1 -3.24888552685269  2.99690094109411  1.54670407210721
 1 -9.40975495799580  4.20518960406041 -0.42334596849685
 1 -10.10957344894489 -2.14659505880588 -0.88133095899590
 1 -2.32264478127813 -1.29527714551455  2.07999804810481
 1 -1.75778511711171  1.12256273247325  0.93034948834884
 1 -1.36324770847085  0.48466678107811  2.82242295339534
 1 -1.97650582448245  1.94177275367537  3.02746886468647
 1 -3.03953628612861  0.36497438273827  3.28835470457046
 1 -1.78956797709771 -2.68273954695470 -0.25060284708471
 1 -2.19486465546555 -0.49599107200720 -1.04314410521052
 1  0.31401940024002  0.30607917461746  0.95887175237524
 1  0.06826310651065 -1.73611994579458  0.99844007610761
 1 -3.78250278067807  5.42747057495750  0.45078003570357
 1 -5.12778305890589  6.70601327722772  0.95869277537754
 1 -4.34197522572257  5.76713567456746  1.96532430473047
 1 -8.64508752285229  6.23414852405240 -0.31898827462746
 1 -12.29437899149915 -0.90015088258826 -0.58740316751675
 1 -12.44391060606061  0.24107050685069 -1.60306794319432
 1 -12.70240806390639 -1.46808892429243 -3.33421053815381
 1 -11.76908387218722 -0.23445602410241 -3.48914108360836
 1 -10.90630745514551 -1.56382969997000 -3.35337194459446
 1 -9.30162934623462 -5.03614016961696 -1.58526075407541
 1 -8.17276249084908 -5.55586559915992 -0.18589824172417
 1 -9.07752503250325 -4.93978593979398  0.38403301280128
 1 -3.18510809220922 -3.45458918381838 -0.25003331013101
 1  3.23966558195820 -3.58268554235424 -1.23065878297830
 1  2.35856014481448 -1.88271418641864 -2.30757099239924
 1  3.92764009170917 -0.98446119451945  0.19107270887089
 1  4.58986204320432 -1.45279875237524 -3.72870298529853
 1  6.24317789618962 -1.63140181558156 -3.48850007390739
 1  5.20338416581658 -3.06714932923292 -2.94722890669067
 1  6.83554397629763  0.64202954035404 -1.89983260046004
 1  6.24954006340634  0.40518606640664 -0.47688195159516
 1  7.15301648054805 -1.63531172827283 -0.03632191059106
 1  7.81740713911391 -1.19244803510351 -1.55242471837184
 1  8.61285341674167  1.00691128592859 -1.06574936023602
 1  8.32782128022802  0.58332352055206  0.74633034143414
 1  9.82659510661066 -1.26904434813481 -0.97152431003100
 1  9.14625686998700 -1.69904872057206  1.44415277607761
 1  10.79420548994899 -1.14199808100810  1.74837672907291
 1  9.65686889848985 -0.13339456185618  2.10066137123712
 1  10.83058669646965  1.20179293919392 -0.85350252185219
 1  11.18633838043804  1.53142201780178  1.06906078637864
 1  12.42253979617962 -0.97861030053005  0.91094477777778
 1  12.40635278927893 -0.46618483908391 -0.81696469396940
 1  13.63552842284228  1.44427397239724 -0.74254315891589
 1  13.24541658645865  1.79642389368937  1.07793358275828
 1  15.05433685948595 -0.32780029602960 -0.13648183938394
 1  14.70499039893989  1.04300469596960  2.60808358135814
 1  14.10379765326533 -0.83268093999400  2.21706920502050
 1  15.77257429052905 -0.26000958405841  2.09743622132213
 1  15.61641277617762  2.16255624902490 -0.55596557125713
 1  16.04951898449845  2.13023255875588  1.19057738093809
 1  17.43714502960296  0.35109828042804  0.62873306000600
 1  17.07304482868287  0.14281245044504 -1.13540491789179
 1  18.18737374447445  2.57067361516152 -1.40400338863886
 1  18.33278327442745  2.56279018591859  0.48238490899090
 1  19.98264082528253  0.51574442064206  0.54660801160116
 1  19.59076739473947  1.26578162776278 -2.33583570877088
 1  20.75072936293629  0.49982818101810 -1.66775090849085
 1  19.38669139613961 -0.17043476187619 -2.36653472817282
 1  20.85934271287129  3.14986456555656  0.49318007160716
 1  21.92581032133214  2.02170875357536 -0.44193690869087
 1  20.91941859475947  3.05331281848185 -1.20378517481748
 1 -0.77739336443644 -4.48336108550855  2.80065841384139
 1 -2.51157083808381 -4.10765803950395  3.70547118371837
 1 -1.41779579287929 -2.82566104320432  3.91684583778378
 8 -11.70277865216522  3.91173597279728 -0.98468028172817
 1 -12.96412692419242  2.52762400250025 -1.75269587458746

