%nproc=4
%Mem=2GB
# td=(NStates=1) iop(3/107=0140000000,3/108=0140000000) iop(3/107=0140000000,3/108=0140000000) CAM-B3LYP/6-31G(d,p) 

TD

0 1
12 -6.77014958705871  0.66601574567457  0.04422204170417
 6 -4.55122222872287 -2.00527894969497  0.49219949694970
 6 -4.26810862626263  2.87012864596460  0.94576745834583
 6 -9.04595730043004  3.20103412751275 -0.32425192689269
 6 -9.51106920452045 -1.84400743034303 -0.49206926562656
 7 -4.73006807870787  0.35255465316532  0.54528356045605
 6 -4.07151441704170 -0.82555226202620  0.58590914631463
 6 -2.60791421002100 -0.48664042324232  1.14449651195119
 6 -2.51732169796980  1.05373552235224  1.46458862136214
 6 -3.98440470337034  1.47178726392639  0.89107388208821
 6 -2.25182146784678  1.49264106000600  2.79067363016302
 6 -1.66180492889289 -0.88908147154715 -0.07497617131713
 6 -0.01957007530753 -0.99382108870887  0.41603067656766
 6  0.80371145034503 -0.95290252715272 -0.65803397719772
 8  0.79049911801180 -0.34224683718372 -1.74125511571157
 8  1.96349663626363 -1.83873417201720 -0.41158608110811
 7 -6.75707744994499  2.60638100810081  0.47858160606061
 6 -5.44961552245224  3.30583922712271  0.72071836803680
 6 -5.87477169236924  4.67417710251025  0.73810867946795
 6 -7.27898861226123  4.89728581908191  0.43578016131613
 6 -7.83785548944895  3.58551736013601  0.15182001340134
 6 -4.83024794509451  5.68111554205421  1.07575524352435
 6 -7.86489805110511  6.08974589468947  0.31926144984498
 8 -7.53381729792979  7.19587120372037  0.68325618241824
 7 -8.82704625812581  0.62832369156916 -0.45371802090209
 6 -9.59691336373637  1.84513924922492 -0.45472652495250
 6 -11.04776140644064  1.49690956205621 -0.86478225942594
 6 -11.13766812431243  0.03350425482548 -0.93539439493949
 6 -9.68240990429043 -0.46947511071107 -0.57770984768477
 6 -12.07190396569657  2.40667686078608 -1.23690834163416
 6 -12.27695081558156 -0.75161872417242 -1.40412854655466
 6 -12.15411227332733 -1.13687585278528 -2.73304609930993
 7 -6.97125360826083 -1.39417197849785  0.01811916741674
 6 -8.03715637723772 -2.29878987568757 -0.26017921592159
 6 -7.57690527562756 -3.59428675107511 -0.39074008410841
 6 -6.19345496669667 -3.60879003990399 -0.21802006260626
 6 -5.88228451715171 -2.15819463396340  0.04898108240824
 6 -8.40635915941594 -4.86135351315132 -0.53677649354935
 6 -5.10756696119612 -4.42270806890689  0.22759078477848
 8 -4.97893964266427 -5.63434397269727  0.17532803940394
 6 -3.85835956135614 -3.43104366356636  0.42322696989699
 6 -3.36279979087909 -3.74479065456546  1.71279099209921
 8 -3.97550279037904 -3.92459919471947  2.72697136693669
 8 -1.95734740964096 -3.68293459875988  1.85502544174417
 6 -1.20315883798380 -4.10099518961896  2.90247467266727
 6  3.06024791759176 -2.01375655255526 -1.37272851695169
 6  4.07093086048605 -1.07589459055906 -1.02047758005801
 6  5.12198295369537 -0.90468734013401 -1.86758295989599
 6  5.16431041484148 -1.61267440214021 -3.11433841604160
 6  6.18198202280228  0.05162750985099 -1.50948750725073
 6  7.47150584458446 -0.85945172727273 -1.24718145544555
 6  8.59434199449945  0.12492812741274 -0.87121560206021
 6  9.93845693509351 -0.47677459775978  0.03309500380038
 6  9.77656517281728 -1.09727854255426  1.47164153295330
 6  10.97003933393339  0.62512736693669  0.09482432083208
 6  12.35596086658666 -0.05738443124312  0.02934124532453
 6  13.43848539113911  0.98098537323732  0.40787368576858
 6  14.78603493869387  0.37882116021602  0.39481414351435
 6  15.06959194729473 -0.42542482298230  1.69294921892189
 6  15.88634826322632  1.31212611461146  0.08666187148715
 6  17.36612609070907  0.68359358375838 -0.10516739063906
 6  18.49654920232024  1.58657584878488 -0.24296444324432
 6  19.94860706180618  1.07392588738874 -0.24504458815882
 6  20.05089489078908  0.33938936923692 -1.61153694489449
 6  20.91268843774377  2.10875229322932 -0.01831692759276
 1 -3.47973861216122  3.35669692069207  1.29085848754875
 1 -9.77904188668867  3.98177726282628 -0.84004763866387
 1 -10.16705919751975 -2.41725212451245 -0.83195602150215
 1 -2.26755927272727 -1.01867948574858  1.87159720802080
 1 -1.73726306490649  1.35302577877788  0.63686013941394
 1 -1.23292467616762  1.36447476187619  2.86194690579058
 1 -2.19078725262526  2.52028060446045  2.94263038083808
 1 -2.73026535903590  1.24295218051805  3.47462333143314
 1 -1.88270729102910 -1.78322959595960 -0.45787357415742
 1 -1.59900506950695 -0.28773024592459 -0.84416420722072
 1  0.14328232653265  0.01980054675467  1.06630249544955
 1  0.00087636783678 -1.79503583738374  1.00201043314331
 1 -3.89325385578558  5.76816464436444  0.25655061276128
 1 -5.49193947454746  6.75783845974598  1.17735464156416
 1 -4.70459148734874  5.39744870587059  2.10300807310731
 1 -8.91659467356736  6.11957706690669 -0.01852822862286
 1 -12.29924947854786 -1.37660852835284 -0.67258168536854
 1 -13.28554476947695  0.08699509930993 -1.22746038243824
 1 -13.15332315541554 -1.37250936633663 -3.23440055715572
 1 -12.11186815061506 -0.29058163666367 -3.38699086858686
 1 -11.07951477587759 -1.63842715971597 -3.32300890829083
 1 -8.83805298859886 -4.87278383398340 -1.45404763276328
 1 -8.02346756135614 -6.19838985158516 -0.32760241214121
 1 -9.09105638563856 -4.97541950315031  0.22071668116812
 1 -3.35868544994499 -3.43352707760776 -0.35235354215422
 1  3.39337095249525 -2.98341561536154 -1.37672338943894
 1  2.33803809260926 -2.21251716671667 -2.86295653095310
 1  3.99582691039104 -0.92947569596960  0.28858245984598
 1  4.38633169016902 -1.33465693819382 -3.71809192419242
 1  6.17371094949495 -1.49417809320932 -3.72426365026503
 1  5.19230305770577 -2.81353396769677 -2.85820000380038
 1  7.07466788868887  0.70281561896190 -2.48932154935494
 1  6.09807491689169  0.64708025582558 -0.90793505690569
 1  6.92740391929193 -1.52343054015402 -0.10509878827883
 1  7.53740913931393 -1.56002479277928 -1.76317579347935
 1  8.73617574897490  0.51083167796780 -1.73392617791779
 1  8.20450894899490  0.99506469466947 -0.02252654425443
 1  10.26380882798280 -1.42984042774277 -0.62862001960196
 1  8.97812005630563 -1.79400821652165  1.24352271307131
 1  10.83175924532453 -1.53868774997500  2.09914180558056
 1  9.31511472307231 -0.51849307170717  2.04145545064506
 1  11.22775641344134  1.36104886478648 -0.73411058265827
 1  11.09066881348135  1.31704057965797  0.83779766006601
 1  12.26947448964896 -0.81991443094309  0.94640832413241
 1  12.63295544954495 -0.82388060866087 -0.84009700720072
 1  13.27471234123412  1.83717326232623 -0.23565246984698
 1  12.84362640744074  1.57100135143514  1.16369215861586
 1  14.86963838963896 -0.13891140714071 -0.52633082428243
 1  15.53202310221022  0.25185558105811  2.60070284328433
 1  14.05558283178318 -0.87584525642564  2.26194369246925
 1  15.93149018211821 -1.17277086018602  1.51151762946295
 1  15.72021315621562  1.94342433583358 -0.48830880558056
 1  15.99208324092409  2.09204874037404  0.87759608280828
 1  17.64703601870187  0.08764193479348  0.74985517221722
 1  17.37316484068407 -0.19625145594559 -0.80089146654665
 1  18.51961696879688  2.11532808060806 -1.45110809910991
 1  18.09202919901990  2.46908081498150  0.44864153465347
 1  20.22147470867087  0.41133397959796  0.51775512631263
 1  19.76291460946095  0.90621567116712 -2.14452657785779
 1  20.70561485148515 -0.17006880868087 -1.56191032443244
 1  18.91751447844785 -0.42418013641364 -1.88559663436344
 1  20.89571635023502  2.60656023512351  0.94349510311031
 1  22.29447718801880  1.35647222992299  0.09773705870587
 1  20.65637229012901  3.03680116731673 -1.22689748604861
 1  0.09057343224323 -4.23164591399140  2.54331267926793
 1 -1.50615029602960 -5.44735200890089  3.22124276087609
 1 -1.30275428872887 -3.37491596869687  3.99497365056506
 8 -11.73827220152015  3.70106490569057 -1.28504031773177
 1 -12.75882639413941  1.97807904800480 -1.83167377237724

