%nproc=4
%Mem=2GB
# td=(NStates=1) iop(3/107=0140000000,3/108=0140000000) iop(3/107=0140000000,3/108=0140000000) CAM-B3LYP/6-31G(d,p) 

TD

0 1
12 -6.85500807290729  0.53517266136614  0.10866848634863
 6 -4.41386849334933 -2.05462388418842  0.31366164316432
 6 -4.40135195059506  2.90097173027303  0.85532841444144
 6 -9.27492019671967  3.11154517861786 -0.26532603430343
 6 -9.18613671127113 -1.90093312291229 -0.52187224592459
 7 -4.80239531143114  0.36742614031403  0.56257528962896
 6 -3.96397366296630 -0.78858856565657  0.65137569296930
 6 -2.51815523412341 -0.31840359955996  0.98315037733773
 6 -2.45275524132413  1.20285043384338  1.10887304980498
 6 -4.00855711861186  1.63021310651065  0.87138191289129
 6 -1.97495378107811  1.70883267916792  2.55319988278828
 6 -1.72999174757476 -0.87487005040504 -0.28105677937794
 6 -0.24673279157916 -1.11890359695970  0.12736180968097
 6  0.61049212841284 -1.23147038393839 -1.07637581138114
 8  0.56387645574557 -0.84319693219322 -2.27090808100810
 8  1.88181846844684 -1.70964126272627 -0.60487541004100
 7 -6.85950769296930  2.58075844584458  0.33344709260926
 6 -5.67547810871087  3.26127477067707  0.66820311651165
 6 -6.12299651485149  4.74388407320732  0.56400126872687
 6 -7.45083579697970  4.93055914641464  0.22122870617062
 6 -7.95006671057106  3.50565937433743  0.17665249664967
 6 -5.11433635393539  5.90026745724572  0.61393906190619
 6 -8.23055461676168  6.13032995309531  0.23072259595960
 8 -7.81282519871987  7.13188480508051  0.49864772157216
 7 -8.83048660216022  0.53747460666067 -0.29684233333333
 6 -9.57289096149615  1.72418715401540 -0.31015206750675
 6 -11.14173080338034  1.29534940604060 -0.47562334353435
 6 -11.05657001450145 -0.04501359695970 -0.61430228572857
 6 -9.69610127342734 -0.50621878507851 -0.41171324802480
 6 -12.15641241654165  2.29739593269327 -0.64877952875288
 6 -12.19662278277828 -0.87076063836384 -0.78426656035604
 6 -12.86974383648365 -0.84002616781678 -2.40472326702670
 7 -7.00804728762876 -1.50670323162316 -0.04292693719372
 6 -8.04718738033803 -2.28791878857886 -0.29905310331033
 6 -7.47743532863286 -3.82150947334733 -0.13816482658266
 6 -6.11179680088009 -3.62576173707371 -0.08343660426043
 6 -5.75089137783778 -2.18433724822482 -0.02757657335734
 6 -8.26372489598960 -4.95726310411041 -0.52691550745075
 6 -4.91375758025803 -4.47817361546155  0.00911893759376
 8 -4.73637538623862 -5.62781331963196 -0.13603309670967
 6 -3.69620334573457 -3.39959051825183  0.28758340554055
 6 -3.10133364426443 -3.62454863036304  1.73786349934994
 8 -3.43954919501950 -3.87042377717772  2.85788445824582
 8 -1.77299897479748 -3.52365867116712  1.49550949014901
 6 -0.92627114921492 -3.78803389348935  2.69319374457446
 6  3.05364725752575 -1.90778595549555 -1.54658590269027
 6  3.97751151855186 -0.88553555465547 -1.07671320362036
 6  5.01750250565057 -0.57307417881788 -1.83054925652565
 6  5.40589457325733 -1.42106524122412 -3.20319730193019
 6  6.22762658725873  0.30238258535854 -1.34532109060906
 6  7.46282497649765 -0.41310709280928 -1.02549928722872
 6  8.75225778607861  0.48419405400540 -0.78487696819682
 6  9.82359544894489 -0.16706362666267 -0.10239854555456
 6  9.48600611691169 -0.76942575727573  1.20408477727773
 6  11.12993532353235  0.74260911511151 -0.15887104870487
 6  12.38630390089009  0.10766207340734  0.15700401160116
 6  13.51598314091409  1.16745402010201  0.25009790819082
 6  14.85289162436244  0.27725100320032  0.59534419651965
 6  14.88556354445445 -0.05896817731773  2.03723364736474
 6  15.95339496789679  1.27646254825483  0.19445265056506
 6  17.34992447054706  0.33074829922992  0.17921104720472
 6  18.51461100850085  1.38221541274127 -0.04810495729573
 6  20.09645184628463  0.48693718851885  0.12779269556956
 6  20.38220802210221 -0.57490205990599 -1.38570436163616
 6  21.13186035493549  1.41546296429643  0.04561946604660
 1 -3.44747538583858  3.69508075907591  0.91756115781578
 1 -10.22637662016202  3.79785887098710 -0.37378101200120
 1 -9.73323581518152 -2.61708210751075 -1.16846967286729
 1 -2.18245076187619 -0.89583720152015  1.77157720602060
 1 -1.90179951855186  1.73130360656066  0.16096254965497
 1 -1.05995737943794  1.31213952835284  3.25961667276728
 1 -2.52052022592259  3.28403698009801  2.35855197299730
 1 -2.70966329882988  1.23757164246425  3.32263813291329
 1 -2.26084510481048 -1.71085235823582 -0.56105389218922
 1 -1.69959512851285 -0.01990346324632 -1.08244803560356
 1  0.22879087738774 -0.34903633693369  0.66335220042004
 1  0.44302058225823 -2.06474280808081  0.86457668976898
 1 -3.99720425082508  5.77032486038604  0.10024498219822
 1 -5.68300858145815  7.00457313321332  0.07707461356135
 1 -5.04457548574857  6.04126308730873  1.84166193849385
 1 -9.10593360746075  5.81897700690069  0.10856448064807
 1 -11.84986454005401 -1.87364823232323 -0.09735416261626
 1 -13.26633284828483 -0.66431003120312 -0.30496813321332
 1 -13.58315613871387 -1.22868498389839 -2.50032714981498
 1 -13.22890985478548  0.13703112461246 -2.83544571407141
 1 -11.85679250365036 -1.26962027902790 -3.03485009240924
 1 -8.84257344064407 -5.24337089268927 -1.44046627462746
 1 -7.77626284088409 -6.08576858945895 -0.43517316921692
 1 -9.05529280928093 -4.87245920712071  0.38869347884788
 1 -3.15766534793479 -3.45671939683968 -0.58886719351935
 1  3.48720033543354 -2.84131140494049 -1.42959867696770
 1  2.63597788658866 -2.03770968596860 -2.53838407370737
 1  3.84358168586859 -0.16854960336033 -0.20462686108611
 1  4.90502355935593 -0.85933940644065 -4.04939505450545
 1  6.40017359575958 -0.97108578397840 -3.75993721762176
 1  5.33885771317132 -2.59394200850085 -3.24317850165016
 1  6.44458488038804  0.86206154355436 -2.40409302650265
 1  5.90411552095209  1.31778732653265 -0.59955421882188
 1  7.15647682658266 -0.61575977307731  0.04124584618462
 1  7.70938633703370 -0.96565535583558 -1.76084556045604
 1  9.13389552095209  0.95677627242724 -1.94798758405841
 1  8.23094159225923  1.46454164236424 -0.14294858645865
 1  10.20746319341934 -0.97862530623062 -0.69288644624462
 1  8.89672191649165 -1.50440925662566  1.40147850865087
 1  10.55000106950695 -1.20310419161916  2.13726561796180
 1  8.95254846644665  0.12833161076108  1.94293559865987
 1  11.16902053985399  1.25768852875288 -0.93040021162116
 1  11.05147489408941  1.39792866846685  0.62863674397440
 1  11.95807334953495 -0.77813025252525  0.94570825412541
 1  12.70945309930993 -0.49744796539654 -0.48725172267227
 1  13.64925979597960  1.97076662166217 -0.92407131173117
 1  13.24807685248525  1.84446869816982  1.03199898929893
 1  14.70861228702870 -0.55976349234924 -0.04325251645165
 1  15.36277617751775  0.77582797829783  2.81790456345635
 1  13.90350762426243 -0.61719939183919  2.83238073617362
 1  15.64847188028803 -0.97718130123012  1.93049952765277
 1  15.85563669856986  1.68970896429643 -0.91104107880788
 1  15.84033806640664  2.23115265076508  0.73901222442244
 1  17.81624293939394 -0.20606743614361  1.31295148184818
 1  17.21719924412441 -0.54611644244425 -0.41069244664466
 1  18.62599760686069  1.91968851665166 -1.15369835813581
 1  18.32085208130813  2.14283819071907  0.62806947744775
 1  19.85381794299430 -0.37792494629463  1.48682203300330
 1  20.38789710771077  0.09947499709971 -2.00402252745275
 1  21.26901119111911 -1.07585938773877 -1.01491562496250
 1  19.79749247624763 -1.36613433183318 -1.39267734243424
 1  20.99302608120812  1.95837541664166  1.08720947454746
 1  22.09491723202320  1.02887947064706 -0.08742145714572
 1  21.47098375127513  2.38485597279728 -0.85259005530553
 1 -0.20510613571357 -3.92173492289229  2.05499384738474
 1 -1.25755543654365 -4.26138341204120  3.34515515211521
 1 -0.74117813111311 -2.96704518161816  3.18132228542854
 8 -11.93764213851385  3.47078187738774 -0.59407122082208
 1 -13.24066457795780  1.89716095619562 -0.54475508050805

