%nproc=4
%Mem=2GB
# td=(NStates=1) iop(3/107=0140000000,3/108=0140000000) iop(3/107=0140000000,3/108=0140000000) CAM-B3LYP/6-31G(d,p) 

TD

0 1
12 -6.85593816591659  0.46192533663366  0.08423604310431
 6 -4.54327143364336 -2.11062948474848  0.36977725472547
 6 -4.18096991239124  2.64059569266927  0.97734061566157
 6 -8.94021672637264  3.27929195329533 -0.29232873457346
 6 -9.36110420802080 -1.64749777937794 -0.66231629032903
 7 -4.58270334223422  0.28576797449745  0.52543157525753
 6 -4.00324759035904 -0.94192389918992  0.58703925932593
 6 -2.60309372797280 -0.73167492669267  1.08700076237624
 6 -2.48290825662566  0.92169231803180  1.29829199169917
 6 -3.82605886878688  1.28627871307131  0.99956473117312
 6 -1.97674396009601  1.22870466636664  2.76672123492349
 6 -1.51618036643664 -1.06024858825883  0.04159548584858
 6 -0.10597871617162 -1.35512721932193  0.48058713221322
 6  0.74830590979098 -1.62119935683568 -0.59163733753375
 8  0.91279134723472 -0.93323593609361 -1.54091508170817
 8  1.73882416901690 -2.45040533913391 -0.27036195869587
 7 -6.49084082628263  2.60703107310731  0.24279802770277
 6 -5.50298085898590  3.15608425162516  0.65064136033603
 6 -5.65582979817982  4.63409309410941  0.70216508510851
 6 -6.88607932133213  4.81549764026403  0.32586917021702
 6 -7.59481118501850  3.56041484988499  0.05210004140414
 6 -4.66294121442144  5.70260769126913  1.08253592159216
 6 -7.79404096539654  6.06171309140914  0.34161368506851
 8 -7.27134105030503  7.25780739733973  0.26918477527753
 7 -8.62951650515051  0.74542540174017 -0.40099274837484
 6 -9.29547321972197  1.98649338463846 -0.49923097539754
 6 -10.79875650595059  1.64836470757076 -0.69319510071007
 6 -10.87949230673067  0.33380428482848 -0.85794665016502
 6 -9.63826548984898 -0.22758092129213 -0.56580865756576
 6 -11.66802357765776  2.68212440554055 -0.90884553535354
 6 -12.20233335383538 -0.46587014931493 -1.18770690439044
 6 -12.31999886198620 -0.48361052625263 -2.80182297699770
 7 -6.93708019091909 -1.43006556785679 -0.32402504700470
 6 -8.05110777237724 -2.28642863956396 -0.56590978897890
 6 -7.64964254935494 -3.59619694209421 -0.48846985708571
 6 -6.38291391259126 -3.70076923782378 -0.13865212581258
 6 -5.93902019071907 -2.23491230573057  0.00538672297230
 6 -8.79427795129513 -4.87395477327733 -0.74570738663866
 6 -5.25575177967797 -4.52974877297730 -0.09147112141214
 8 -5.00481222992299 -5.74347488578858 -0.00195968936894
 6 -4.00018374377438 -3.42614317351735  0.36092073927393
 6 -3.42019553045305 -3.82265844134413  1.76411612461246
 8 -4.24274951505151 -4.00932766756676  2.76479514931493
 8 -2.11243291819182 -3.74052035733573  1.73165310451045
 6 -1.26521504360436 -4.06975206530653  2.92036646184618
 6  3.03064495729573 -2.51607678457846 -1.14416566066607
 6  3.91643541094109 -1.37697469856986 -0.75922145444544
 6  4.90935169056906 -0.90035690709071 -1.50190639223922
 6  5.03659764356436 -1.38299143384338 -2.88196517871787
 6  6.03675750035003  0.08979132623262 -1.17516407490749
 6  7.48115680968097 -0.62751853395340 -0.98224496179618
 6  8.54044660496050  0.41889752435244 -0.54953343384338
 6  9.76262935233523 -0.25882280258026  0.06526822112211
 6  9.50329784608461 -0.69065788048805  1.50778514731473
 6  10.97683001300130  0.73422827702770 -0.05895105670567
 6  12.24809007950795  0.08619992719272  0.39079739093909
 6  13.54281582418242  1.00594786948695  0.58715161356136
 6  14.83358969416942  0.33622690079008  0.28171283338334
 6  15.17233222132213 -0.26137841834183  1.74900482448245
 6  15.81384101250125  1.58838374037404  0.03574677997800
 6  17.29122860096010  0.91801702610261 -0.13234010791079
 6  18.15532507990799  1.98030522172217 -0.55224537133713
 6  19.76544874597460  1.23433192799280 -0.47729781348135
 6  19.78470827212722  0.04467989828983 -1.66668245944594
 6  20.52370953985399  2.66571798979898 -0.58044314021402
 1 -3.50211084938494  3.39913116411641  1.54455385708571
 1 -9.85385936843684  4.02955204030403 -0.73736737063706
 1 -10.28711120272027 -2.27878827812781 -0.78055088098810
 1 -2.39657217401740 -0.95259287708771  1.95880592889289
 1 -1.61011034963496  1.12627310351035  0.45816226962696
 1 -1.22977436113611  0.44050236463646  3.36845755685569
 1 -1.90851902580258  2.47711628802880  2.71641775957596
 1 -2.70234256675668  1.10386827212721  3.15974184328433
 1 -1.69037805810581 -2.34006527952795 -0.39594738153815
 1 -1.40303547254725 -0.42400387328733 -0.93764355515551
 1  0.00006800510051 -0.40173160646065  0.92818868406841
 1  0.01429770997100 -2.21648798259826  1.43481371347135
 1 -3.90511504190419  5.75626345424542  0.46392134983498
 1 -5.04651493209321  6.80726340224022  1.13423032913291
 1 -4.51121214941494  5.37900686168617  2.02888066036604
 1 -8.80397341144115  6.12807791699170  0.05240886508651
 1 -11.99205875947595 -1.51873274077408 -0.66696112331233
 1 -13.18585480048005 -0.07813141334133 -1.05674331073107
 1 -13.37062488558856 -1.33200531593159 -2.95577269436944
 1 -12.94567153095310  0.38890631213121 -3.10647281678168
 1 -11.31929875427543 -0.43519683668367 -3.49611621902190
 1 -9.67650683398340 -4.60947750335034 -1.66100832883288
 1 -7.65180039463946 -5.75098511111111 -1.24789444134413
 1 -9.18578585858586 -5.23999596079608  0.43743835333533
 1 -3.19992957435744 -3.55126885178518 -0.59014732153215
 1  3.44919653505350 -3.40503777757776 -0.72163788088809
 1  2.68076236503650 -2.24945086008601 -2.05007524282428
 1  4.08540586828683 -1.03573632203220  0.19680328192819
 1  3.78408146514651 -0.70139361186119 -3.37818793379338
 1  5.97483106150615 -0.79790846624662 -3.66674789868987
 1  4.95357918531853 -2.76017863216322 -2.76130031383138
 1  6.23223364526453  0.87753309070907 -2.08799141634163
 1  5.64967007640764  0.51828737653765 -0.23473773717372
 1  7.54396557545754 -1.41147934503450 -0.26598487688769
 1  7.64906030443044 -1.17570636093609 -1.80805028092809
 1  9.14757688908891  1.02022261706171 -0.84468725402540
 1  8.29092759085909  1.35275046324633  0.18506421482148
 1  10.08240068716872 -1.16396384008401 -0.37038419601960
 1  8.36701894619462 -1.21506032173217  1.87117547834783
 1  10.22161823122312 -1.25145902710271  1.99766165756576
 1  9.17242045364537  0.26553533113311  2.12739404450445
 1  10.92968660646065  0.81413417331733 -1.38085525712571
 1  10.71633137973797  1.63548242384238  0.64217809810981
 1  12.08072561476148 -0.32612505200520  1.51410509380938
 1  12.48479063306331 -0.94457267786779 -0.07775077257726
 1  13.47944281428143  1.49375892089209 -0.16860576517652
 1  13.46648869366937  1.52439669096910  1.10273606300630
 1  14.83826525232523 -0.50058757475748 -0.32764095529553
 1  15.39974987488749  0.35123551905191  2.41520429342934
 1  14.72283955745574 -1.17595526742674  2.36746424452445
 1  16.16893392649265 -0.78639222232223  1.61468794649465
 1  15.63161429632963  2.07607760116012 -1.04092406710671
 1  15.69471350395039  2.25769530503050  1.10738906210621
 1  17.80825214031403  0.44732790339034  1.13364355105511
 1  17.14766229042904 -0.10391222202220 -0.85812719011901
 1  18.19428443554355  2.03607015481548 -1.89989297759776
 1  17.83370336643664  2.99985389228923  0.02078874937494
 1  20.11096365756576  0.86921976817682  0.60593394419442
 1  19.61338965696569  0.57337238683868 -2.81840396559656
 1  21.07583187318732 -0.76666846864686 -1.46168030143014
 1  19.01216394339434 -0.91917963636364 -1.29306738143814
 1  20.29593637223722  3.52502208130813 -0.03460270667067
 1  21.62472021232123  2.03627020972097 -0.41556427142714
 1  20.69526617951795  3.08370585778578 -1.81144594089409
 1 -0.17542316741674 -4.59759250865087  2.25201354935494
 1 -2.08363804480448 -4.68574584828483  3.38240887748775
 1 -0.94112812611261 -2.70015849294930  3.18560271347135
 8 -11.46821519581958  3.95229002820282 -0.96248806250625
 1 -12.28813932543254  2.48719996009601 -1.30514111911191

