%nproc=4
%Mem=2GB
# td=(NStates=1) iop(3/107=0140000000,3/108=0140000000) iop(3/107=0140000000,3/108=0140000000) CAM-B3LYP/6-31G(d,p) 

TD

0 1
12 -6.68821139323932  0.63794293839384 -0.03207558805881
 6 -4.59248635513551 -2.04184260606061  0.34637491449145
 6 -4.15242705810581  2.81387302040204  0.63051593319332
 6 -8.87239994469447  3.09828385248525 -0.28388789048905
 6 -9.23053115071507 -1.71856488608861 -0.69921998069807
 7 -4.53335840774077  0.39747914561456  0.49504853695370
 6 -3.97869513511351 -0.76619632643264  0.58458901430143
 6 -2.46401982058206 -0.59279103830383  0.93398546084608
 6 -2.49107907370737  0.88793894269427  1.27645980848085
 6 -3.75335159805981  1.42031211641164  0.84692946764676
 6 -2.19723600930093  1.19187098299830  2.85363992679268
 6 -1.62214096249625 -1.01802436583658 -0.24545321902190
 6 -0.27057517581758 -1.15363707030703  0.27147622112211
 6  0.70700177937794 -1.36006324322432 -0.87710588438844
 8  0.63263333143314 -1.02654526702670 -2.00596158635864
 8  1.81747203380338 -2.16825712431243 -0.44837976047605
 7 -6.41515325752575  2.68837920792079  0.09561330923092
 6 -5.23022358325833  3.30995963916392  0.45644194039404
 6 -5.69226344154415  4.82005168996900  0.55786065466547
 6 -7.04744545794579  4.85085117561756  0.17314389768977
 6 -7.49168087198720  3.44508331673167  0.01123595499550
 6 -4.71681660196020  5.89132656315631  0.70886855485549
 6 -7.84732629392939  5.97320424052405  0.14592411611161
 8 -7.56970088628863  7.09366098269827  0.36665452225223
 7 -8.69564311781178  0.67332819201920 -0.55642829192919
 6 -9.49918359075908  1.86381111641164 -0.48568962126213
 6 -10.72753938423842  1.55090496159616 -0.67354313551355
 6 -10.99947430493049  0.29001990639064 -0.87481833733373
 6 -9.62896455975597 -0.32923108630863 -0.58642071877188
 6 -11.91647842314231  2.49473566666667 -0.67149179998000
 6 -12.19242236273627 -0.63899746204620 -1.08304643834383
 6 -12.59852671477148 -1.05923808900890 -2.64301709640964
 7 -6.96582306520652 -1.43362592389239 -0.10164280878088
 6 -8.04300696229623 -2.22912290899090 -0.42127532553255
 6 -7.56744432953295 -3.70148747114711 -0.49221023112311
 6 -6.20069569076908 -3.60301946284628 -0.21124938553855
 6 -5.98739502820282 -2.26677549204920  0.16685286958696
 6 -8.41501002450245 -4.87268464626463 -0.72077489338934
 6 -4.98967517201720 -4.58371416951695  0.06715474117412
 8 -4.90166191489149 -5.73580411871187  0.10074058065807
 6 -3.99175290069007 -3.39860041924192  0.59009365656566
 6 -3.45678918981898 -3.76984315981598  1.89759947294730
 8 -3.96080132023202 -3.90327706250625  2.93131180098010
 8 -2.26388806370637 -3.68467477277728  1.94362430163016
 6 -1.54833335543554 -3.92055714581458  3.34548897409741
 6  2.92336422922292 -2.15899107600760 -1.43693493759376
 6  3.91626539393939 -1.12105910701070 -1.10519605190519
 6  4.98798955435544 -0.88455532693269 -1.89835603720372
 6  5.42669665346535 -1.50757389208921 -3.16004298649865
 6  6.11501532613261  0.11502384948495 -1.33002956145615
 6  7.46084477847785 -0.56454223632363 -0.69457619491949
 6  8.55680824112411  0.66673230783078 -0.61002948344834
 6  9.80579366876688 -0.21332825312531 -0.00331863756376
 6  9.43555107140714 -0.89080789548955  1.24120848964897
 6  10.91019334933493  0.71923677787779  0.00479531793179
 6  12.38656392689269 -0.03227191999200  0.27648595979598
 6  13.43367491009101  0.99512678737874  0.47155005340534
 6  14.84055039023902  0.45111838993899  0.70553521562156
 6  15.08311329942994 -0.32082436293629  1.96807673167317
 6  15.98254788318832  1.57782268426843  0.55857906320632
 6  17.16972645074507  0.80652587698770  0.17096022212221
 6  18.44465401280128  1.73524071527153 -0.09118926572657
 6  19.86977917901790  1.04388288308831 -0.42427251095110
 6  19.80508030933093  0.21366679697970 -1.72899869106911
 6  20.94237140604060  2.05426684468447 -0.46543163906391
 1 -3.41622226052605  3.61720297129713  0.54368377007701
 1 -9.55030901340134  3.95650473557356  0.04429079517952
 1 -10.07436992859286 -2.12877327662766 -0.86390921682168
 1 -2.33082559935994 -1.17135475327533  1.61046109440944
 1 -1.59664900350035  1.14753522972297  0.62036849024902
 1 -1.37108849254926  0.83850216461646  3.03471418251825
 1 -2.29609778367837  2.48915749214921  2.91012713051305
 1 -2.70267259975998  0.29289717501750  3.86630249934994
 1 -1.96809582988299 -2.03995526852685 -0.60669845664567
 1 -1.87623279227923 -0.04081555445544 -0.99026881768177
 1  0.10115811411141 -0.46331776507651  0.82700856605661
 1 -0.13067678747875 -2.05514184798480  0.95659589168917
 1 -3.75023955435544  5.81312914081408  0.10955591329133
 1 -5.49178945954595  6.84749742564256  0.51653855995600
 1 -4.32637366556656  6.18538749974997  1.93933170547055
 1 -8.89379239333933  5.63246835603560  0.17605122932293
 1 -12.14095364896490 -1.42954382188219 -0.11800622782278
 1 -13.09198541354135 -0.14502810301030 -0.49548718511851
 1 -13.53522134523452 -1.59440155555556 -2.81862897999800
 1 -12.12745970977098 -0.08163074157416 -3.40161233073307
 1 -11.79934675907591 -1.73297661466147 -3.02095870327033
 1 -8.61976115941594 -4.79668622422242 -1.84105633363336
 1 -8.06825203980398 -5.74558457105711 -0.82076172807281
 1 -9.36371365136514 -4.98302026322632 -0.07295268576858
 1 -2.91399098049805 -3.45846957185719 -0.14255256205621
 1  3.41867348274828 -3.26263353715371 -1.34115983308331
 1  2.70936522532253 -2.06907282228223 -2.43384361966197
 1  3.63338066576658 -0.44162691109111 -0.02972937133713
 1  4.71564462146215 -0.99984345684568 -3.90072018701870
 1  6.30960453885389 -1.32700137553755 -3.68182940684068
 1  5.32642647004701 -2.78228084238424 -3.18492267606761
 1  6.62625304720472  0.66042137953795 -2.65619823702370
 1  5.36778188758876  1.00282583038304 -0.76372063546355
 1  7.11115229412941 -1.01434963206321  0.16175789738974
 1  7.63659905830583 -1.37630642094209 -1.52535201110111
 1  8.79469160056006  0.95947654245425 -1.70190297559756
 1  8.18102660076008  1.68217340554055  0.32157786618662
 1  10.24925737283728 -1.17383482718272 -0.82634979257926
 1  8.12679492379238 -1.37004582028203  1.71432979377938
 1  9.87438350775078 -2.26874075527553  1.35658755015502
 1  9.72929614121412  0.13223200080008  2.01231253635364
 1  10.99394303210321  1.37604036393639 -0.99151632323232
 1  10.57421716831683  1.24258313391339  0.88341222152215
 1  12.26289383158316 -0.57596003550355  1.32134581788179
 1  12.67555970997100 -0.60340856145615 -0.52441543904391
 1  13.42000687068707  1.99785933093309 -0.12542144674467
 1  13.19316136093609  1.50361461276128  1.52635842524252
 1  14.89911133693369 -0.26186370237024 -0.14329252045205
 1  14.99754965486549  0.32072246774677  2.89224199719972
 1  14.55037231073107 -1.15733340524052  2.01222872097210
 1  15.98777581068107 -0.59874345744574  2.03277975567557
 1  15.20991212611261  2.02263225662566  0.04003402870287
 1  16.41150518311831  2.06532606810681  1.56639496269627
 1  17.28586990209021  0.09396256685669  1.13025321202120
 1  17.18143566776677  0.06082425162516 -0.82463384078408
 1  18.02202720982098  2.07456400420042 -1.18349133743374
 1  18.51890188628863  2.59857376427643  0.64505117561756
 1  19.92885544674468  0.41664451065107  0.25947929872987
 1  19.72736105410541  1.06875192479248 -2.57656978217822
 1  20.69083337333733 -0.23705550735073 -2.02388652205221
 1  18.82264499149915 -0.33251096949695 -1.69140721542154
 1  21.14626140474047  2.84166374547455  0.34566532013201
 1  22.03830157045705  1.31537812051205 -0.67633034803480
 1  21.07551420432043  2.94573206040604 -1.36772156845685
 1 -0.38405403050305 -3.78801155055506  3.22628097609761
 1 -1.74765444644464 -4.82211948564857  3.46806744334434
 1 -1.63900791409141 -3.13088156525653  4.17485163836384
 8 -11.92992136643664  3.63696849604960 -0.34521633533353
 1 -12.80519103060306  2.30722196229623 -1.23523412841284

