%nproc=4
%Mem=2GB
# td=(NStates=1) iop(3/107=0140000000,3/108=0140000000) iop(3/107=0140000000,3/108=0140000000) CAM-B3LYP/6-31G(d,p) 

TD

0 1
12 -6.69482205430543  0.55289443354335  0.09886750625063
 6 -4.44873197969797 -2.15602402420242  0.47069734673467
 6 -4.27301911731173  2.78390002310231  1.20562344394439
 6 -8.96967967266727  3.24270829492949 -0.29489899159916
 6 -9.15937403500350 -1.86264929452945 -0.80837089578958
 7 -4.59070414231423  0.41465086278628  0.71832086418642
 6 -3.89835710131013 -0.78920862766277  0.70346090149015
 6 -2.51315473407341 -0.60514227342734  1.02929499179918
 6 -2.48804877067707  0.95000514931493  1.41323348584858
 6 -3.89601586448645  1.47523760896090  1.19309408410841
 6 -2.16178246394639  1.20479227512751  2.90221478427843
 6 -1.68158690709071 -0.95798836223622 -0.14783345704570
 6 -0.18821693999400 -1.11794350095009  0.46502557605761
 6  0.81260233943394 -1.32640987788779 -0.66148432223222
 8  0.78498856695670 -0.87472008450845 -1.76556754695470
 8  1.88175846244624 -2.04058435703570 -0.24708963146315
 7 -6.67261900410041  2.57454782478248  0.36872061996200
 6 -5.46337689858986  3.36855549874987  0.82466876307631
 6 -5.93712792799280  4.71115079987999  0.86678154675468
 6 -7.16776749014902  4.89626571707171  0.51108769206921
 6 -7.72472417631763  3.43007181558156  0.17307213861386
 6 -4.95712063236324  5.87520495099510  1.23198086608661
 6 -8.03864542584258  6.19442636273627  0.35301482518252
 8 -7.65748966516652  7.33612522912291  0.75306316311631
 7 -8.75404895839584  0.71395225442544 -0.45614826392639
 6 -9.58212188458846  1.81612634793479 -0.59027007930793
 6 -10.84139076937694  1.55909578067807 -0.90959674087409
 6 -10.81650600810081  0.17553845824582 -1.19508036353635
 6 -9.47697936123612 -0.35383354655466 -0.82512458915892
 6 -11.83893066836684  2.54030022312231 -1.15800045084508
 6 -11.76992011251125 -0.73728729102910 -1.80323845754575
 6 -11.81057791989199 -0.97959012421242 -3.18778157285729
 7 -6.93404988788879 -1.38017057835784 -0.16589923442344
 6 -7.91368403000300 -2.21343133983398 -0.59718291629163
 6 -7.58076566166617 -3.50762808520852 -0.51394240434043
 6 -6.29888550975097 -3.62123128402840 -0.21439970057006
 6 -5.97431372007201 -2.13307212171217  0.22834901920192
 6 -8.33440196369637 -4.72619999779978 -0.96291910781078
 6 -5.22716892139214 -4.50041583968397  0.16577460316032
 8 -4.95720746944694 -5.79397993629363  0.22855336193619
 6 -3.98631235663566 -3.51897245644564  0.47624227142714
 6 -3.46189970087009 -3.77767394289429  1.96156586958696
 8 -4.05322056215622 -4.16914364916492  2.84727339713971
 8 -1.92163383828383 -3.60645695099510  1.95683562276228
 6 -1.34708323042304 -3.82401749184918  3.21023544874487
 6  3.00276216901690 -2.09489466636664 -1.27818906300630
 6  4.04145791319132 -1.07379438053805 -1.00953648594860
 6  5.14353510891089 -0.86585345674567 -1.92770897249725
 6  5.46788077187719 -1.64927806250625 -3.15899288148815
 6  6.15038886348635  0.06709905700570 -1.35592215071507
 6  7.35911460546055 -0.66524230633063 -0.47333407070707
 6  8.57247980828083  0.33644927952795 -0.54220270077008
 6  9.78054114351435 -0.24296121642164  0.13802549684968
 6  9.37392490879088 -0.81478029272927  1.67011137993799
 6  10.91711404140414  0.65741059525953  0.18165300370037
 6  12.16260153065307  0.08687999519952  0.46291460266027
 6  13.44777632023202  0.98741601630163  0.15837873627363
 6  14.85485182038204  0.36907018511851  0.35746040814081
 6  14.89678466656666 -0.25387766826683  1.70550047404740
 6  15.92428205660566  1.38984388638864 -0.10668746344635
 6  17.23357283538354  0.73180840524052 -0.10242711661166
 6  18.31287083448345  1.64505169636964 -0.61976212301230
 6  19.63579578067807  1.10483897869787 -0.58318840254025
 6  19.77098689999000  0.02082751305131 -1.66178196939694
 6  20.81803897279728  2.02412383038304 -0.92319741564156
 1 -3.48997963626363  3.48165941694169  1.59399880158016
 1 -9.97777175967597  4.00329941504150 -0.74642827672767
 1 -9.94157664926493 -2.41847224652465 -1.15366819271927
 1 -2.21847436423642 -1.19485710351035  1.96407645594559
 1 -1.75275461406141  1.64316479267927  0.73542999639964
 1 -1.35507689138914  0.84189250365036  3.30241095219522
 1 -2.23168134203420  2.30556913331333  2.86891300910091
 1 -3.09795212771277  0.58301618691869  3.41481735083508
 1 -2.04371339163916 -2.35631690469047 -0.41673946074607
 1 -1.86777194619462 -0.15156662956296 -1.17331712251225
 1  0.14797279557956 -0.13353478677868  1.10082594779478
 1 -0.08651237103710 -1.80159649344935  1.50275050715072
 1 -4.27296182658266  5.57448527642764  0.78157311501150
 1 -5.14621490209021  6.88003067896790  0.72161906800680
 1 -4.78757978617862  6.03583254425443  2.48097586988699
 1 -8.94984799889989  6.39068417761776 -0.38722509830983
 1 -11.86016557015702 -1.78489935743574 -1.42817724492449
 1 -12.91840805580558 -0.15840944114411 -1.74822245864586
 1 -12.55129295239524 -1.57226934233423 -3.45627274437444
 1 -11.65464242804281 -0.16752933143314 -3.88466063556356
 1 -10.88678550295029 -1.63672698969897 -3.57542414981498
 1 -8.86169535283528 -3.67257381298130 -1.67567979597960
 1 -7.48344355895590 -5.27426743934394 -1.54362401430143
 1 -8.85007228722872 -5.30815277647765 -0.13423881438144
 1 -3.17153673507351 -3.45205893079308 -0.63102140894089
 1  3.38236985238524 -3.14275154895490 -0.83919963706371
 1  2.48518280708071 -1.72214812981298 -2.21969220452045
 1  3.68738606630663 -0.40357310571057 -0.14991138953895
 1  4.63628668566857 -1.68411188368837 -3.93294340934093
 1  6.41196477487749 -1.17207588298830 -3.72560378427843
 1  5.71992581998200 -2.58898151245125 -2.81994617841784
 1  6.85493591549155  0.62037737513751 -2.34453707090709
 1  5.64513962336234  0.86264181198120 -0.60543480688069
 1  6.97544872377238 -1.12233043014301  0.58484020562056
 1  7.67723312171217 -1.74089287958796 -1.11208068396840
 1  8.83147527892789  0.88414900970097 -1.61603438873887
 1  8.21739023712371  1.38623381158116  0.16928263666367
 1  10.01864431153115 -1.24036147984799 -0.32916007360736
 1  8.51516376067607 -1.55748456415642  1.69812817361736
 1  10.11148721812181 -1.44353823502350  2.11926381778178
 1  9.21359457105711  0.13314209180918  2.40296160126013
 1  10.73357699549955  1.03349610951095 -0.78616578817882
 1  10.58247799439944  1.43215209080908  0.86534041434143
 1  12.33166070827083 -0.27181962146215  1.31206488978898
 1  12.28684083808381 -0.83634185478548 -0.25768876637664
 1  13.68595346534654  1.35236478147815 -0.79469837443744
 1  13.22685473027303  1.89053330463046  0.85534132353235
 1  14.79676110191019 -0.55304282028203 -0.28064625582558
 1  14.97289718961896  0.79481987748775  2.28838161116112
 1  14.04277155065506 -0.91961963386339  2.38165566366637
 1  16.10659769286929 -0.90461404450445  1.95501197889789
 1  15.69181031593159  1.69117911131113 -0.93487346204620
 1  16.04023805640564  2.27120665616562  0.60089841304130
 1  17.54890620572057  0.47478064866487  0.96006619331933
 1  17.17264478867887 -0.08667049784978 -0.68586996439644
 1  18.10792579967997  2.10335688348835 -1.71554454275428
 1  18.42459245534554  2.47571147804780  0.12165883638364
 1  19.83140570177018  0.45436828302830  0.16602995379538
 1  20.28467678567857  0.72864791439144 -2.58642076727673
 1  20.66279056905691 -0.73602540434043 -1.29410354375437
 1  18.55280800780078 -0.69203692209221 -1.74019209390939
 1  20.95508228682868  3.04649422852285 -0.33446269266927
 1  21.73964170447045  1.63310989368937 -0.88522123712371
 1  20.75851250415041  2.44958244544454 -1.73482827912791
 1  0.14438881378138 -4.05216796619662  3.13305165316532
 1 -1.96506618761876 -4.79050632433243  3.55328596519652
 1 -1.44359837313731 -2.81768024512451  3.95644979817982
 8 -11.83197157145715  3.70611541074107 -0.86357817151715
 1 -12.48843935543554  2.30894213431343 -1.74269487448745

