%nproc=4
%Mem=2GB
# td=(NStates=1) iop(3/107=0140000000,3/108=0140000000) iop(3/107=0140000000,3/108=0140000000) CAM-B3LYP/6-31G(d,p) 

TD

0 1
12 -6.80273284538454  0.66443558765877  0.19868748824882
 6 -4.51941904840484 -1.96299472127213  0.48677895489549
 6 -4.31684349974998  2.74235586868687  1.12892577417742
 6 -9.00672337703771  3.10824484858486 -0.22345184688469
 6 -9.20259835743574 -1.69774280388039 -0.91857191589159
 7 -4.75719079097910  0.47010640834083  0.77089612171217
 6 -3.94799206480648 -0.77644735153515  0.81009156455645
 6 -2.44370778937894 -0.50402216141614  1.07884994729473
 6 -2.50262022782278  1.05586573537354  1.39506166866687
 6 -3.87616387928793  1.51684176937694  1.05026980168017
 6 -2.25531181688169  1.39720151605161  2.87603216601660
 6 -1.43709245764576 -0.82691525492549 -0.00690936463646
 6 -0.29614773307331 -1.30356206280628  0.48439751325133
 6  0.82904398359836 -1.24121135803580 -0.74306248004800
 8  0.58022809090909 -0.72491510401040 -1.81054204440444
 8  1.99722000860086 -1.97929822842284 -0.37117203970397
 7 -6.65617735993599  2.63592396239624  0.33032678057806
 6 -5.51502206310631  3.37613625682568  0.65847214341434
 6 -5.82544675987599  4.90149983478348  0.67570243884388
 6 -7.18832954635464  4.91329742024202  0.24823140644064
 6 -7.76423812771277  3.51633044144414  0.07057188858886
 6 -4.86208112841284  5.92758018851885  1.14861252925292
 6 -8.17225878717872  5.98453537363736  0.40733025672567
 8 -7.53120703690369  7.08771038763876  0.50921877867787
 7 -8.76513006650665  0.69711057025703 -0.43441609070907
 6 -9.53265693809381  1.90776551185119 -0.52970402270227
 6 -10.96992362266227  1.60765063616362 -0.88516429762976
 6 -10.75693005050505  0.23927483188319 -1.13819467496750
 6 -9.54344600790079 -0.29317748094809 -0.88781085778578
 6 -12.03215999129913  2.45866205930593 -1.00088473927393
 6 -11.96418953945395 -0.66457001930193 -1.40690882458246
 6 -12.40879774187419 -0.92327449264927 -3.02389518421842
 7 -7.01957844074408 -1.42982554385439  0.00719807530753
 6 -8.11427408900890 -2.29719971667167 -0.49220241824182
 6 -7.45274285938594 -3.66398372077208 -0.59358036813681
 6 -6.31559718091809 -3.64635379627963 -0.18938719931993
 6 -6.00489677837784 -2.25883469796980  0.26583276757676
 6 -8.24604312781278 -4.90755813361336 -1.09353216911691
 6 -5.10503670817082 -4.45091088918892  0.11650967666767
 8 -4.74033578227823 -5.63664420272027 -0.10906039943994
 6 -3.86437016241624 -3.32759331853185  0.49810445764576
 6 -3.29220273117312 -3.75061123662366  1.83365307830783
 8 -3.86835207530753 -4.11283801860186  2.84936360616062
 8 -1.93427510241024 -3.42261856715672  1.86268620782078
 6 -1.21561008310831 -3.68288337843784  3.21732615781578
 6  2.89250114291429 -2.07576275317532 -1.36772801690169
 6  4.08290205760576 -1.22207920902090 -0.95878141044104
 6  5.22193294869487 -1.14838170957096 -1.76850305190519
 6  5.24921890569057 -1.70753388808881 -3.13909089128913
 6  6.26610043464346 -0.07749540244024 -1.34728128662866
 6  7.48501719571957 -0.71461724382438 -0.98257499479948
 6  8.48200076037604  0.17922355695570 -0.39095757625763
 6  9.79769285868587 -0.44173109340934  0.16008770307031
 6  9.56055357165716 -1.03016183088309  1.56522089088909
 6  11.01705403540354  0.46669152335234  0.17862270067007
 6  12.42279755025502 -0.16442513531353  0.35121343254325
 6  13.41663320592059  0.88186546124612  0.39109200760076
 6  14.90721705690569  0.23194647274727  0.48473313541354
 6  14.92782777087709 -0.26075835633563  1.84237416141614
 6  15.98869849824983  1.38338324032403  0.18990219551955
 6  17.22600207830783  0.74317954235424 -0.17555442934293
 6  18.26268581598160  1.75463265446545 -0.53075322212221
 6  19.69490169126913  1.06903539833983 -0.63878396209621
 6  19.83554335563556  0.36811224152415 -1.76621241244124
 6  20.96320348924893  2.14103552155216 -0.53388848474847
 1 -3.69948058635863  3.59330058105811  1.25011441314131
 1 -9.83101708420842  3.80328941404140 -0.53118675257526
 1 -9.93381587318732 -2.41851225052505 -1.18596142204220
 1 -2.22897541434144 -1.02700031783178  1.84898494679468
 1 -1.78889822842284  1.62594307050705  1.12296875027503
 1 -1.46643802750275  0.84070238463846  3.20869158025803
 1 -1.86605477937794  2.45247382378238  3.16705282308231
 1 -2.95018735123512  1.24247213251325  3.66494236333633
 1 -1.83508252855286 -1.60460173317332 -0.57948573537354
 1 -1.44212938193819  0.17968649574958 -0.77901769256926
 1  0.37677567586759 -0.43353478677868  1.26026189138914
 1 -0.20302402220222 -2.22310864466447  0.87024725682568
 1 -4.05558008840884  5.67054488238824  0.54412937063706
 1 -5.08760904150415  6.99282195809581  0.76693359945995
 1 -4.84956598479848  6.03520248124812  2.41534930723072
 1 -9.18685169926993  5.90379548874887  0.14048767296730
 1 -12.09524907850785 -1.71089195669567 -0.76159058625863
 1 -12.72549876487649  0.12206860666067 -1.17656529292929
 1 -13.07690551365137 -1.65677779317932 -3.30879799689969
 1 -12.61246821062106  0.16274369586959 -3.28407057655766
 1 -11.52638946334633 -1.34815813281328 -3.75062166956696
 1 -8.38602778607861 -4.75730228582858 -2.25829805780578
 1 -7.39016423102310 -5.81392140474047 -1.01953160506051
 1 -9.20250753075308 -5.11021298249825 -0.67484287478748
 1 -2.93796337773777 -3.46121984688469 -0.20708901570157
 1  3.16267788318832 -3.13758103190319 -1.04228994609461
 1  2.52519680848085 -2.33051896689669 -2.51482171747175
 1  3.92424975267527 -0.77439018741874  0.13526712831283
 1  4.41720477747775 -1.76740021252125 -3.52531264626463
 1  5.89297287568757 -1.31646032143214 -3.46896812071207
 1  5.28971279867987 -2.52601521582158 -3.51213539733973
 1  6.38067848974898  0.51478681608161 -2.54181679887989
 1  5.84913002240224  0.75904145194519 -0.73710797419742
 1  7.26677785668567 -1.57335553265326 -0.34172245064506
 1  7.93295869426943 -1.15460425072507 -1.93794327022702
 1  9.22489462086208  1.05533612841284 -1.33111589688969
 1  8.05187368546855  0.81049623782378  0.42425813421342
 1  10.08112055915592 -1.34078152185219 -0.43989114671467
 1  8.42017426172617 -1.40569938563856  1.94882324312431
 1  10.10570664006401 -1.79645352655265  1.70545243664366
 1  9.69504271587159 -0.01908313071307  2.38897020212021
 1  11.14157779557956  1.09244200410041 -0.86613378497850
 1  10.75177492409241  1.13036191179118  0.53100698099810
 1  12.32750029222922 -0.72413485298530  1.29629331263126
 1  12.81009316331633 -0.62899111971197 -0.59465246274627
 1  13.48241311131113  1.55395494049405 -0.63899280388039
 1  13.37062910771077  1.59066331763176  1.13356914631463
 1  14.93807523332333 -0.62782029802980 -0.26393458465847
 1  14.93695359525953  0.21684207970797  2.65296806980698
 1  14.33266053955395 -1.08567623952395  2.01187868596860
 1  15.98384541764176 -0.78262184528453  2.14797127482748
 1  15.38326946184618  1.61558155155516 -0.55380535523552
 1  16.24401843444344  1.72477201270127  0.98563688688869
 1  17.47157847294729  0.31843501410141  0.95002518921892
 1  17.29372689688969 -0.32641447224722 -0.81801317871787
 1  18.19071407850785  2.24077062486249 -1.73661664996500
 1  18.08538853495349  2.71400530743074  0.03231990249025
 1  19.87503006420642  0.30157300350035  0.14849820062006
 1  19.59686800480048  0.83684873447345 -2.71857398259826
 1  20.86503079307931 -0.12223402520252 -1.78350248364836
 1  19.00475320232023 -0.27219493789379 -1.73206128082808
 1  20.82300907950795  2.72269184828483  0.35854660826083
 1  21.74598233853385  1.92059864256426 -0.70271298629863
 1  20.59164581748175  3.16666415361536 -1.23246804310431
 1  0.04446882178218 -3.70988373777378  2.85011335933593
 1 -1.63739342034203 -4.77406468016802  3.52539317591759
 1 -1.41534554785478 -2.78386686378638  3.86070022322232
 8 -12.02556093039304  3.50302510171017 -0.79169098279828
 1 -13.03693420492049  1.89569080918092 -1.18187879287929

