%nproc=4
%Mem=2GB
# td=(NStates=1) iop(3/107=0140000000,3/108=0140000000) iop(3/107=0140000000,3/108=0140000000) CAM-B3LYP/6-31G(d,p) 

TD

0 1
12 -6.81200377247725  0.57384652875288  0.24548216771677
 6 -4.57786489298930 -2.04774319611961  0.52153243024302
 6 -4.18348016341634  2.81017265036504  0.87307018861886
 6 -8.92180488518852  3.10830485458546 -0.09813931563156
 6 -9.23784188178818 -1.74939796939694 -0.78083814251425
 7 -4.79001407330733  0.40245964366437  0.63506253835384
 6 -3.90205747134713 -0.82819252605261  0.75615617101710
 6 -2.43276669526953 -0.52454421362136  0.93666572887289
 6 -2.41347131293129  0.89084923372337  1.18579074157416
 6 -3.79015527842784  1.35028511371137  1.00650542524252
 6 -2.03932021772177  1.27183897979798  2.65891045384538
 6 -1.61897064546455 -1.16128869226923 -0.23539221292129
 6 -0.17275539383938 -1.45708741534153  0.18954802830283
 6  0.64320539973997 -1.52210944784478 -0.87020519431943
 8  0.63974404250425 -1.17381999449945 -1.94449543974397
 8  1.89985027162716 -1.98315861446145 -0.26752167466747
 7 -6.67038878107811  2.57382775277528  0.31054480238024
 6 -5.41097165806581  3.16320496369637  0.63665996219622
 6 -5.71491570677068  4.69930961576158  0.51235610421042
 6 -7.17655836923692  4.85005109560956  0.36898348164816
 6 -7.56701840574057  3.45631443984398  0.07571240264026
 6 -4.50493541384138  5.70743817431743  0.80235790379038
 6 -7.91467302860286  6.07208412851285  0.29259878357836
 8 -7.35792970917092  7.21635325192519  0.42861071787179
 7 -8.92599615311531  0.71176203540354 -0.29646229532953
 6 -9.60735440784078  1.88924365966597 -0.34517556985699
 6 -10.92272890319032  1.64375424652465 -0.65336111731173
 6 -10.97735209270927  0.28327923232323 -0.78908976447645
 6 -9.65351701500150 -0.29087725092509 -0.57388946564656
 6 -11.91192796809681  2.67929412251225 -0.75366001680168
 6 -12.20153327382738 -0.63607717001700 -1.23866199989999
 6 -12.36117297939794 -0.48521068626863 -2.63669646434643
 7 -6.98851533443344 -1.46240880218022 -0.08186083058306
 6 -8.15262792439244 -2.28175817251725 -0.24002720072007
 6 -7.81094867996800 -3.79242656505651 -0.30594160426043
 6 -6.35042066326633 -3.56941610251025  0.09187092649265
 6 -6.06086237493749 -2.33005181968197  0.29746593089309
 6 -8.65836435993599 -4.89455683348335 -0.71516433233323
 6 -5.10290649514952 -4.36770256835684  0.04047207290729
 8 -4.96282803150315 -5.57453799209921 -0.08818831223122
 6 -3.90595432083208 -3.41247180638064  0.38250289748975
 6 -3.50316382728273 -3.68149432493249  1.69530924392439
 8 -4.05804104420442 -3.97491422622262  2.84907357715772
 8 -2.13721539643964 -3.46278258355836  1.64547448664866
 6 -1.53588211031103 -3.77499258935894  2.85715014021402
 6  3.05258715151515 -2.34102927982798 -1.28065931003100
 6  4.07120088748875 -1.29304630573057 -1.03624915721572
 6  5.08674943034303 -1.27905477687769 -1.92254845644564
 6  5.22417640144014 -2.23338647334733 -3.18140512271227
 6  6.19965378997900 -0.25199285218522 -1.71680823932393
 6  7.48966766076608 -0.60196597869787 -1.27722445974597
 6  8.56106866716672  0.32977861246125 -0.91688016851685
 6  9.88502159155916 -0.31930885118512 -0.36540484618462
 6  9.40935845214521 -0.73230204490449  1.38357272607261
 6  11.03922625262526  0.61673652785279 -0.19254441604160
 6  12.35555082558256  0.06411771897190  0.22709102030203
 6  13.45101664426443  1.16448372307231 -0.01240834243424
 6  14.80094642984298  0.57994127222722  0.43052771487149
 6  15.11102609070907  0.17103482298230  2.07591751575158
 6  15.79510913931393  1.59823472547255  0.03148635393539
 6  17.28134761286129  0.93469869426943  0.27331045714571
 6  18.44217376477648  1.84749194039404 -0.18074822162216
 6  19.85693789488949  1.13225171997200  0.05500541684168
 6  20.25616541784179  0.14613004330433 -0.99068485968597
 6  20.86488365726573  2.38012943094309 -0.10240533643364
 1 -3.15881651995200  3.54396564756476  0.79668907060706
 1 -9.39591357385739  4.16951603670367 -0.47535116901690
 1 -10.00732322392239 -2.44237463676368 -0.94361718761876
 1 -2.19466198299830 -1.00741835963596  1.91475152345235
 1 -1.91963130173017  1.32525300150015  0.64659111251125
 1 -0.89335071877188  1.24279259365937  2.89825053615362
 1 -2.18174634853485  2.26258483488349  2.93686980478048
 1 -2.57444977747775  0.51715960126013  3.37193306240624
 1 -1.98888790909091 -2.06087736073607 -0.55260304710471
 1 -0.99821499049905 -0.41677315021502 -1.26394618541854
 1 -0.03184518621862 -0.57619905320532  0.91234709990999
 1 -0.20771449124913 -2.26368270207021  1.10445067716772
 1 -3.73748827922792  5.43766159405941 -0.04469951225123
 1 -4.38630891149115  6.70188286418642  0.51614852095210
 1 -4.35577660586059  5.56472543354335  1.81629940224022
 1 -8.88115112921292  5.96323143234323 -0.00357673347335
 1 -12.09279883348335 -1.68698956645665 -0.48944337153715
 1 -13.03660987598760 -0.16966056625663 -0.66141377777778
 1 -13.29376719981998 -0.96638875427543 -3.12069918701870
 1 -12.31776874067407  0.77778520002000 -3.08164033353335
 1 -11.17275409980998 -0.99414273127313 -2.93584019141914
 1 -8.79822900620062 -4.73971052665266 -1.49570179817982
 1 -8.31767698229823 -5.72683269586959 -0.16264591649165
 1 -9.63580086008601 -4.97436939813981  0.29871448094810
 1 -3.02763234463446 -3.58628235313531 -0.42091039783978
 1  3.21920353575358 -3.51996927072707 -1.16961267836784
 1  2.62128641744174 -2.33163907890789 -2.34406464176418
 1  3.52260958865887 -0.36505925432543 -0.23968036643664
 1  4.45751880888089 -2.59307277977798 -3.75184529952995
 1  5.96293987238724 -1.57455613101310 -3.82075329922992
 1  5.78032185958596 -3.21608422272227 -2.98555273907391
 1  6.68883930583058  0.12685802320232 -2.64319693689369
 1  5.86812192159216  0.59499504730473 -1.01333559695970
 1  7.13120429932993 -1.16529472657266 -0.57741602000200
 1  7.83684908330833 -1.49579837013701 -2.05816529242924
 1  8.80257238863886  0.70083067786779 -1.86570935623562
 1  8.40807930603060  1.12102729092909 -0.25255954755476
 1  10.39242168926893 -1.14546198989899 -1.07732489008901
 1  8.91890413471347 -1.43086190189019  1.29317767856786
 1  10.34483055245525 -1.29141302250225  1.78219011041104
 1  9.17199041064107  0.19767854545455  1.65312661776178
 1  10.91331496929693  0.84191695159516 -1.35223239483948
 1  10.80641038763876  1.91118999459946  0.23254713501350
 1  12.36806434863486 -0.31138357785779  1.14283796709671
 1  12.71572372637264 -0.86460468106811 -0.57487048454845
 1  13.37730260026003  1.62953249824982 -1.42386129072907
 1  13.43343538833883  2.24419867116712  0.59787557695770
 1  15.14482590839084 -0.54401191719172 -0.37383557475748
 1  14.85633553345335  1.06996739223922  2.78833160616062
 1  14.23054032753275 -0.44270194209421  2.33381087918792
 1  16.21382841594160 -0.13026660976097  2.20755723342334
 1  15.72713384828483  1.67903789718972 -1.27753772847285
 1  15.68048208080808  2.59320885638564  0.60442876607661
 1  17.34506582168217  0.55709888048805  1.74267445414541
 1  17.43942146634663 -0.12320415121512 -0.27592897029703
 1  18.48986399349935  2.55867241504150 -1.35906889518952
 1  18.17515751185119  2.57756166306631  0.68420509100910
 1  19.69199176037604  0.47089993619362  1.11688503930393
 1  19.99685800380038  0.11900695029503 -2.44710683588359
 1  21.01672596259626 -0.22711451325132 -0.82743687708771
 1  19.60952367936794 -0.67571528992899 -1.12678075277528
 1  20.25288206680668  2.89243882298230  0.71397215081508
 1  21.88968670897090  2.32574915761576 -0.17400011501150
 1  20.53306995989599  3.10408789598960 -0.43776857315732
 1 -0.55572119721972 -3.97932068146815  2.56003435143514
 1 -1.85979566056606 -4.31089836353635  3.41733236983698
 1 -2.07664167746775 -3.08218669576958  3.44767892109211
 8 -11.54401277557756  3.83378817801780 -0.77531934563456
 1 -12.93456396789679  2.36197743784378 -0.72882348734874

