%nproc=4
%Mem=4GB
# td=(NStates=1) iop(3/107=0140000000,3/108=0140000000) iop(3/107=0140000000,3/108=0140000000) CAM-B3LYP/6-31G(d,p) 

TD

0 1
12 -5.61527303390339  1.27925279957996  0.20062866806681
 6 -4.99740012721272 -2.11012947624763 -0.36545341214121
 6 -3.38393718281828  1.13216350115011  2.77329270257026
 6 -6.17890668636864  4.54725798999900  0.64210441924192
 6 -8.03925969306931  1.15766661736174 -2.25771344484448
 7 -4.37123137643764 -0.32691088288829  1.15312665146515
 6 -4.28969249674968 -1.52038574017402  0.66884923452345
 6 -3.24024714921492 -2.27996129892989  1.42353671737174
 6 -2.90357352835283 -1.31322421332133  2.61077763386339
 6 -3.57401482888289 -0.01826445414541  2.17181176637664
 6 -3.40215325472547 -1.86762020342034  4.00097279667967
 6 -1.93408860206021 -2.67160456975698  0.61918722422242
 6 -0.97779942344234 -3.58396597719772  1.43264685268527
 6  0.21051615211521 -3.95370921162116  0.48828702340234
 8  0.39720978527853 -3.57132444604460 -0.66729296349635
 8  1.05246209190919 -4.81041065836584  1.18094270157016
 7 -4.81766258255826  2.58890826772677  1.46536676837684
 6 -3.97608969876988  2.37677509920992  2.46995759905991
 6 -3.76519602330233  3.67306580878088  3.19432998919892
 6 -4.51880243294329  4.58232976127613  2.54438370967097
 6 -5.21933803800380  3.94166226142614  1.45022111441144
 6 -2.81504686778678  3.83898127392739  4.40006419581958
 6 -4.61559809040904  6.04946236673667  2.78597810261026
 8 -4.20882093009301  6.53678156615662  3.88081198109811
 7 -6.79796359625963  2.63740363616362 -0.74240589688969
 6 -6.86394910971097  3.99285890309031 -0.37600928962896
 6 -7.83159834623462  4.65538226302630 -1.21516562606261
 6 -8.45775522882288  3.58163509340934 -2.00562950735074
 6 -7.75820471097110  2.42541855065507 -1.66385233173317
 6 -8.15014800570057  6.03413332273227 -1.28544805360536
 6 -9.48271263456346  3.85532593079308 -3.03020765356536
 6 -8.79852130583058  4.38352649884988 -4.40040644464446
 7 -6.36362478147815 -0.22245726342634 -1.03801889388939
 6 -7.34450397999800 -0.05907197579758 -2.06712092279228
 6 -7.61688919611961 -1.29340104370437 -2.71199372197220
 6 -6.69528907770777 -2.20394996679668 -2.12124829052905
 6 -6.02466088148815 -1.50564412951295 -1.11944807520752
 6 -8.45047050485048 -1.56634676067607 -3.85822271847185
 6 -6.20773444054405 -3.57916350025003 -2.03736729182918
 8 -6.51951634713471 -4.54026172457246 -2.62853911901190
 6 -5.02669123122312 -3.57733578617862 -0.90506282608261
 6 -5.24936241364136 -4.57306274737474  0.10580425222522
 8 -5.65162093369337 -4.45441444954495  1.26867323072307
 8 -4.94296399459946 -5.83415461186119 -0.39296244084408
 6 -5.28207577177718 -7.03878573187319  0.36509833963396
 6  2.38716969016902 -5.11449256945695  0.59474342874287
 6  3.42254678967897 -4.18220838173817  0.93091099089909
 6  4.09046843704370 -3.34463733383338  0.14837847284728
 6  3.77464180308031 -3.14553949524953 -1.22205170967097
 6  5.11421784758476 -2.34814986258626  0.71878567736774
 6  6.48284315561556 -2.60814373957396  0.19938140554055
 6  7.67369269286929 -1.79980933643364  0.72276796729673
 6  9.05239606090609 -2.00176501010101  0.08340055755576
 6  9.54814119581958 -3.40654129452945  0.24710125242524
 6  9.97462804190419 -0.85988622602260  0.52928544404440
 6  11.37556485888589 -1.06804641154115 -0.07533629982998
 6  12.16431412001200  0.23792842034203  0.14650149774978
 6  13.46989944574457  0.48933380328033 -0.61241600480048
 6  14.37252555155515 -0.70593999659966 -0.26007015791579
 6  14.20667660726073  1.81069724132413 -0.12244149894990
 6  15.43350754115411  2.15196322452245 -1.02429742474247
 6  15.89447203160316  3.57095184798480 -0.76269688288829
 6  17.17414266336634  3.92238007960796 -1.46509044424442
 6  17.07413000270027  3.97694258595860 -2.98606083028303
 6  17.76948635473547  5.24412967826783 -0.87218667756776
 1 -2.88767449024903  1.22350662606261  3.69087955635564
 1 -6.04060203900390  5.73388876927693  0.75789478117812
 1 -8.79848025522552  1.27106740964096 -2.83250872967297
 1 -3.47192825762576 -3.15939125452545  1.99239730053005
 1 -1.68480560446045 -1.16175383698370  2.73797507360736
 1 -2.84094387348735 -2.81921508270827  4.35986953095310
 1 -3.44662545524552 -1.15229513391339  4.78651068086809
 1 -4.45236774847485 -1.98527760866087  3.93818776927693
 1 -2.10885619931993 -3.26596611391139 -0.35660628442844
 1 -1.53719155155516 -1.66381549784978  0.19312743434343
 1 -0.63708914241424 -2.90019131473147  2.27332155085509
 1 -1.35947066866687 -4.52270940214021  1.94560635863586
 1 -1.65609572337234  3.70818034243424  3.93559946964696
 1 -2.95320631073107  4.85932313831383  4.60818707640764
 1 -2.92698569356936  3.25464646214621  5.04649965596560
 1 -5.16870993489349  6.56622081648165  1.92975829722972
 1 -9.85753488698870  2.78048870597060 -3.08028127982798
 1 -10.31286208410841  4.54774861896190 -2.74242453315332
 1 -9.64584438423842  4.50148856285629 -5.21555675797580
 1 -8.43943345274528  5.43316306170617 -4.42420237523752
 1 -8.11091094009401  3.76516587538754 -4.46952687748775
 1 -7.95959354895490 -1.01937248014801 -4.76912791109111
 1 -8.72320330333033 -2.68662206730673 -4.09094173117312
 1 -9.58973905340534 -1.18468529192919 -3.57012391909191
 1 -4.15428278567857 -3.81692651925193 -1.59879316621662
 1  2.47564869786979 -6.13845178817882  0.93505946284628
 1  2.23995473887389 -5.21708868496850 -0.62340579017902
 1  3.57508963126313 -4.13096237803780  2.00016502410241
 1  2.80960594729473 -3.39736535763576 -1.52776531753175
 1  3.95678029132913 -1.98510206950695 -1.60702317281728
 1  4.48537071107111 -3.74819854905491 -1.75257418331833
 1  4.80703074397440 -1.18035445944594  0.35986787028703
 1  5.24636316361636 -2.43003463586359  1.71908678897890
 1  6.71049857655766 -3.70607379947995  0.42996088008801
 1  6.45563572397240 -2.47852546154615 -0.91811240674067
 1  7.38031696299630 -0.72955628072807  0.77154439993999
 1  7.66984908780878 -1.79564614771477  1.76289067436744
 1  8.81114522382238 -1.85274354955496 -0.94818815691569
 1  9.00935545424542 -4.31718048944894  0.02094830243024
 1  10.58429777057706 -3.30376457855786 -0.17517763126313
 1  9.69279834123412 -3.60359145064506  1.38586902960296
 1  9.52663181378138  0.11790751695170  0.53487885168517
 1  9.92024212171217 -1.06554308820882  1.73125266526653
 1  11.93155829712971 -1.90543057495750  0.43781940874087
 1  11.20581666836684 -1.14053695859586 -1.27081841544154
 1  11.39050008350835  1.13144757395740 -0.08013756895690
 1  12.35514033733373  0.28984017541754  1.21662994319432
 1  13.44816161686169  0.63704813711371 -1.65665790449045
 1  14.46320565886589 -0.53712192489249  0.75513119311931
 1  13.86542211321132 -1.49296831313131 -0.41298762026203
 1  15.35202619101910 -0.95279847804780 -0.75897278977898
 1  13.45484367856786  2.58254287338734 -0.15459724742474
 1  14.61527822812281  1.68303859305931  0.97221443534353
 1  16.26937859365936  1.49748836153615 -0.81880837153715
 1  15.13506909030903  1.76213012581258 -2.12588396809681
 1  15.22630403500350  4.48225360336034 -0.94663666176618
 1  15.90687345744575  3.76681332273227  0.25227512791279
 1  17.73855753715371  2.89018050925093 -1.23393247284728
 1  16.29429014941494  4.61751828072807 -3.51390375017502
 1  18.02828875237524  4.49987950125013 -3.60784538963896
 1  16.75611581178118  3.03128419841984 -3.46202423702370
 1  17.75177122432243  5.39743096059606  0.10875253945395
 1  18.97063458575857  5.27240139233923 -1.23236015041504
 1  17.01389294019402  6.12655215831583 -1.21835589688969
 1 -4.94868016941694 -7.98815824892489 -0.12730626832683
 1 -6.27584201450145 -6.88252533913391  0.78258176567657
 1 -4.74974314291429 -6.70798237383738  1.26945140174017
 8 -7.73611120272027  6.85528202900290 -0.55314309830983
 1 -8.83309160626063  6.35651129602960 -2.16711239403940

