%nproc=4
%Mem=4GB
# td=(NStates=1) iop(3/107=0140000000,3/108=0140000000) iop(3/107=0140000000,3/108=0140000000) CAM-B3LYP/6-31G(d,p) 

TD

0 1
12 -5.62294380098010  1.24926980128013  0.18242684788479
 6 -5.05937632483248 -2.09951841514151 -0.21615848264826
 6 -3.48653744284428  1.20633091789179  2.78557393069307
 6 -6.13373216891689  4.57774103830383  0.73810401920192
 6 -7.99927569466947  1.16006685738574 -2.28663633713371
 7 -4.44938919221922 -0.28336652845285  1.08845018381838
 6 -4.31717524502450 -1.65477917951795  0.66540889048905
 6 -3.25634875937594 -2.41053435623562  1.55097946164616
 6 -2.94251742274227 -1.35409830073007  2.69684624072407
 6 -3.56310373777378 -0.08106073377338  2.13154773997400
 6 -3.48300133953395 -1.72671611301130  4.01427412681268
 6 -2.05953114631463 -2.75456286558656  0.62972827832783
 6 -0.97863950745075 -3.56936451705171  1.36623021102110
 6  0.24200930143014 -3.80282412311231  0.56203439813981
 8  0.43848391269127 -3.45944325792579 -0.52446868106811
 8  1.00535738143814 -4.64390400770077  1.25254986228623
 7 -4.93237405370537  2.63889326622662  1.45606583828383
 6 -4.04572666246625  2.46515393709371  2.50622122542254
 6 -3.84170367406741  3.72373087528753  3.25936649284928
 6 -4.57015756845685  4.57335886418642  2.58832810411041
 6 -5.27628373257326  3.94309240444044  1.52607870017002
 6 -2.87286264936494  3.95376275207521  4.35422961236124
 6 -4.63505003560356  5.99999742024202  2.96752625742574
 8 -4.04624467246725  6.57723561156116  3.91670557045705
 7 -6.86955075497550  2.65851574737474 -0.70569222552255
 6 -6.86149886468647  3.96875649284928 -0.31422311101110
 6 -7.75603078947895  4.62975970077008 -1.29639374887489
 6 -8.38076753005300  3.67007393729373 -2.08424736913691
 6 -7.71256014651465  2.43906991579158 -1.75243118961896
 6 -8.24435742664267  5.90654056345635 -1.25658516731673
 6 -9.42442680598060  3.77979837803780 -3.07907254005401
 6 -8.85494694839484  3.88554670087009 -4.55474187818782
 7 -6.40904932393239 -0.15870088778878 -1.09932502450245
 6 -7.44545407500750 -0.06549261786179 -2.08716292699270
 6 -7.60886839403940 -1.37248895249525 -2.80339286188619
 6 -6.76747629642964 -2.24022359415942 -2.07853401910191
 6 -6.02600101550155 -1.39431299639964 -1.07522365276528
 6 -8.41584704250425 -1.75544567056706 -3.94773166936694
 6 -6.21358502560256 -3.59932551645165 -1.99930348544854
 8 -6.57329172467247 -4.56515421382138 -2.60029629472947
 6 -5.13295185728573 -3.53941199379938 -0.88065038483848
 6 -5.36739421682168 -4.60361580268027  0.21670534233423
 8 -5.79062483408341 -4.42306131423142  1.27092345574557
 8 -4.95122482068207 -5.83835503190319 -0.32172531713171
 6 -5.25309287348735 -6.91419327262726  0.53771560136014
 6  2.35493646684668 -4.96596771697170  0.52071602600260
 6  3.34621915691569 -4.04436459735974  0.99964786458646
 6  4.06006539673967 -3.22980585068507  0.14604823982398
 6  3.69928426732673 -3.07453239453945 -1.28778828332833
 6  5.23395982178218 -2.40695574317432  0.65822962176218
 6  6.60338520982098 -2.80392331753175 -0.03443197579758
 6  7.68549387298730 -1.81786114161416  0.44052974347435
 6  8.99494031533153 -2.08568340194019 -0.21119890239024
 6  9.50643702540254 -3.38554919531953 -0.02263572127213
 6  10.03073365246525 -0.91697193459346  0.29197171267127
 6  11.32694999739974 -0.77956756365637 -0.53479224542454
 6  12.29159684828483  0.29354398189819  0.18987583518352
 6  13.57909036483648  0.44803967386739 -0.57484224742474
 6  14.51777007600760 -0.73297269986999 -0.32341649254925
 6  14.20843678327833  1.81278745034503 -0.12633188798880
 6  15.42970716111611  2.11013904210421 -1.08183317831783
 6  16.07968055245524  3.44419917271727 -0.65279589278928
 6  17.45225047414742  3.84976281788179 -1.18998293349335
 6  17.34259684938494  4.02223711541154 -2.77715994019402
 6  17.84949435553555  5.27207247254726 -0.58497795669567
 1 -2.90396611941194  1.29119339473947  3.75502597099710
 1 -6.35780375917592  5.51987736813681  0.84850384208421
 1 -8.72613302050205  1.06603690659066 -3.06205168396840
 1 -3.64862592739274 -3.40197551295129  2.01250931173117
 1 -1.93875099899990 -1.14835249684968  2.76967824392439
 1 -2.95321510061006 -2.70336349754975  4.27607115111511
 1 -3.37574836753675 -0.96174607900790  4.84220625042504
 1 -4.56519903160316 -1.73304238513851  3.92584653515351
 1 -2.36687200090009 -3.33862337963796 -0.27784840864086
 1 -1.57733556595660 -1.74394351065107  0.14172229382938
 1 -0.77136256975698 -3.12761405700570  2.23388760746075
 1 -1.46615133673367 -4.50727785898590  1.66830862886289
 1 -1.83689380318032  3.59738926332633  4.11613752345234
 1 -3.06474746484648  4.88375558155816  4.88298455615562
 1 -3.14559755475548  3.28811980948095  5.20484549054905
 1 -5.33029609350935  6.53000719511951  2.51310663206321
 1 -9.95698483198320  2.82605326242624 -3.09965321702170
 1 -10.20542134003400  4.44072791689169 -2.87456774747475
 1 -9.65179497929793  3.90696911091109 -5.22274747704770
 1 -8.28795830523052  4.85705545094510 -4.62619257425743
 1 -8.30731058005800  3.03542290109011 -4.85467539233923
 1 -8.07839542914292 -1.22232277517752 -4.94702570087009
 1 -8.42263324632463 -2.80618402350235 -4.13775641264126
 1 -9.42983306280628 -1.35124194759476 -3.55045195189519
 1 -4.16761411881188 -3.96535136173617 -1.31325461236124
 1  2.69646077907791 -6.03195113811381  0.70948690559056
 1  1.90256099949995 -4.80962793889389 -0.64115756535654
 1  3.42244436673667 -3.77661694349435  1.97760276787679
 1  2.70075506220622 -3.15202082318232 -1.36816935793579
 1  3.81769638293829 -1.94431799109911 -1.57697016751675
 1  4.20872304630463 -3.81438516771677 -2.10698962486249
 1  4.86318635953595 -1.51976840084008  0.38046993049305
 1  5.21972049934994 -2.60067169956996  1.75852073237324
 1  6.76729425612561 -3.78543173527353  0.31502938693869
 1  6.53708386878688 -2.43110071907191 -1.15516611211121
 1  7.18741767306731 -0.91883520862086  0.16034327982798
 1  7.79463156605661 -1.89253583668367  1.55113949924992
 1  8.87433154245424 -1.76946522172217 -1.35186852495250
 1  9.02170668936894 -4.25273404480448 -0.35962975537554
 1  10.48809815061506 -3.46782098419842 -0.39073918741874
 1  9.64961402280228 -3.55561665316532  1.09552999569957
 1  9.51996114671467 -0.08269254305431  0.27403276707671
 1  10.36518661616162 -1.25719225312531  1.48797833783378
 1  12.09883502480248 -1.63462349424942 -0.38969334253425
 1  11.22738882558256 -0.58929183408341 -1.51054238783878
 1  11.89234026752675  1.23214764396440  0.40354079887989
 1  12.55163998729873 -0.24784359295930  1.20336861706171
 1  13.43474027472747  0.54182861516152 -1.63196543524352
 1  14.61035037333733 -0.99457767046705  0.63868954895490
 1  14.14354992599260 -1.75060407670767 -0.74598091959196
 1  15.46228721712171 -0.74259745794579 -0.67455434793479
 1  13.53190138433843  2.72384700380038 -0.31721350905090
 1  14.69586628692869  1.80059034823482  0.84615182908291
 1  16.27163881968197  1.36409502220222 -0.99762625332533
 1  15.23782936633663  2.09123303610361 -2.05610699039904
 1  15.25481688628863  4.28115349334933 -0.83973597169717
 1  16.19440221032103  3.39698634003400  0.52182208260826
 1  18.19737341874187  3.09582107330733 -0.76019509910991
 1  16.77707842824282  4.97149367826783 -3.07302966276628
 1  18.45671159465947  4.05665517881788 -3.12557716281628
 1  17.03982418261826  3.17084815481548 -3.28306634123412
 1  17.73467951515151  5.29224044154415  0.53089475367537
 1  18.87844536683668  5.18877302950295 -0.79193610801080
 1  17.27636918781878  6.02420192329233 -0.71995605690569
 1 -4.61463676507651 -7.77457689078908  0.16081254355435
 1 -6.32342677297730 -7.06415350195020  0.54587809530953
 1 -4.95483365196520 -6.70636221182118  1.59916437303730
 8 -7.77862545414541  6.86773327412741 -0.55948373237324
 1 -9.04722301940194  6.37604324922492 -2.03903958675868

