%nproc=4
%Mem=2GB
# td=(NStates=1) iop(3/107=0140000000,3/108=0140000000) iop(3/107=0140000000,3/108=0140000000) CAM-B3LYP/6-31G(d,p) 

TD

0 1
12 -6.85437800990099  0.59682882698270  0.29110673017302
 6 -4.62284939143914 -2.07122554435444  0.37038731573157
 6 -4.07174899029903  2.74447608070807  1.01690457205721
 6 -8.72697540224022  3.30247427152715 -0.13490299199920
 6 -9.23620171777178 -1.66741977157716 -0.83213327202720
 7 -4.76630170207021  0.41026042374237  0.63068210031003
 6 -3.97078434403440 -0.90111981878188  0.77984854025403
 6 -2.72123554215422 -0.69642140134013  0.98317037933793
 6 -2.53614358015802  0.91423157195720  1.27279944244424
 6 -3.87716397929793  1.34416450165017  0.99044381908191
 6 -1.91241752745275  1.37295909180918  2.70478504130413
 6 -1.75069381778178 -1.25163772717272  0.04893621992199
 6 -0.12334045234523 -1.05597730433043  0.46436551005100
 6  0.80933201240124 -1.39755699259926 -0.67247542134213
 8  0.67524759285929 -1.11306391889189 -1.88025901610161
 8  1.82680296689669 -2.18526882548255 -0.12670759325933
 7 -6.44593633583358  2.71560193019302  0.24751849974997
 6 -5.31396195709571  3.24882352555256  0.63905020122012
 6 -5.75723993919392  4.69938962376238  0.82640750935094
 6 -7.09052976637664  4.86619270977098  0.52443902720272
 6 -7.54718642254225  3.57423623202320  0.17703253465347
 6 -4.78509342964296  5.77778520902090  1.20206787478748
 6 -7.90616217751775  6.17781470157016  0.40793031673167
 8 -7.20851476767677  7.30227184378438  0.67959581638164
 7 -8.60148370187019  0.76115697489749 -0.38353100220022
 6 -9.23271694409441  1.89888462376238 -0.26108716101610
 6 -10.74849147944795  1.73656352745275 -0.71052683388339
 6 -10.91389574707471  0.20133103750375 -0.99004986048605
 6 -9.60889255255525 -0.28262642584258 -0.69500157685769
 6 -11.73099987528753  2.64757095019502 -0.89701435223522
 6 -12.09265238573857 -0.48016157845785 -1.67771590529053
 6 -12.14124098619862 -0.46068823402340 -3.21525432013201
 7 -7.05358184108411 -1.34124668596860 -0.10865350985098
 6 -8.11501416301630 -2.26057605430543 -0.70374357235724
 6 -7.61229881498150 -3.64856217861786 -0.53672468256826
 6 -6.36729235043504 -3.62453161406141 -0.14308256885689
 6 -6.00939722842284 -2.13185199969997  0.05308149244924
 6 -8.34729325282528 -5.00711808960896 -0.84404722062206
 6 -5.34353055755576 -4.49207500560056  0.09549757545755
 8 -5.23172492119212 -5.71403194149415 -0.08873836723672
 6 -4.23939766516652 -3.48537909710971  0.56650129732973
 6 -3.69144265516552 -3.91947812331233  1.84107382038204
 8 -3.95686092619262 -4.27927466226623  3.05492416221622
 8 -2.32955463036304 -3.87357366266627  1.70455039423942
 6 -1.38754727682768 -4.40933602370237  2.81586601180118
 6  2.99416130893089 -2.40968614551455 -1.14832607670767
 6  4.01279504690469 -1.23340034113411 -1.08292382468247
 6  5.27685844124412 -1.33997086848685 -1.85012121372137
 6  5.46235021882188 -2.45699883458346 -2.84602158435844
 6  6.20421424602460 -0.22311996489649 -1.62834939343934
 6  7.44782347634763 -0.69001478357836 -0.98690542784278
 6  8.55696825712571  0.16225185978598 -0.70296877737774
 6  9.74845793519352 -0.32488940924092  0.28059975427543
 6  9.42327984428443 -0.59399821452145  2.00450481928193
 6  10.86177850785078  0.59773462766277 -0.07657281888189
 6  12.29290456095610 -0.05602429522952  0.28604691589159
 6  13.47622916551655  0.98590586528653  0.07256015441544
 6  14.84009034423442  0.73453673177318  0.44226888898890
 6  14.99288427652765  0.61069878937894  2.09756968096810
 6  15.86328595699570  1.59679458145815 -0.15118191289129
 6  17.22663214131413  0.95255047944794  0.06517964406441
 6  18.39020856825683  1.83937112831283 -0.48147829462946
 6  19.74596679777978  1.26840533533353 -0.55723580728073
 6  19.95957575887589  0.33221865216522 -1.56799259045905
 6  20.78750591949195  2.36431784978498 -0.66683177907791
 1 -3.30919155745575  3.49270052105211  1.25618502020202
 1 -9.38223220572057  3.89330841594159 -0.27179081298130
 1 -10.17325981758176 -2.21621202050205 -1.01620444634463
 1 -2.50539305610561 -1.20688830663066  1.90962101040104
 1 -1.98916825542554  1.10396087228723  0.35413186658666
 1 -0.83198458215822  1.18559687408741  2.89925063616362
 1 -1.95481365526553  2.50512908930893  2.78409452725272
 1 -2.54619695219522  0.50367825312531  3.63144901400140
 1 -2.01330035033503 -2.53193446644664 -0.31813960076008
 1 -1.71693686268627 -0.51522299519952 -1.14728451925193
 1 -0.02489449114912  0.19752831953195  0.99880574577458
 1 -0.03392711251125 -1.84775110891089  1.63091332343234
 1 -4.23326785718572  5.75181300920092 -0.01292633493349
 1 -4.79235951655165  6.79486216211621  0.73100000610061
 1 -4.63489451765177  5.81576053705371  2.11527930023002
 1 -9.05989900400040  6.06526163536354 -0.00075645144514
 1 -12.18253780738074 -1.68551941944194 -1.52116654385438
 1 -13.22818903390339 -0.14572817301730 -1.42633026942694
 1 -13.40755857895790 -0.55445756115612 -3.69084620172017
 1 -11.41508847264727  0.48504592609261 -3.58918108760876
 1 -11.81696852125213 -1.25443876087609 -3.55102170957096
 1 -9.31152033533353 -4.65571212681268 -1.75670789878988
 1 -7.24829004360436 -5.81518153075308 -1.69233888578858
 1 -8.67141442144215 -5.68192015321532  0.49944455395539
 1 -3.23386296769677 -3.59348307320732 -0.12218052485249
 1  3.00811242664266 -3.54402167596760 -0.58656437353735
 1  2.61896618541854 -2.72659857485749 -2.37790802610261
 1  3.61254858255826 -0.49001174957496 -0.36573297169717
 1  4.66958001500150 -1.99194266676668 -3.70311042604260
 1  6.59641321972197 -2.57669634503450 -2.98963018691869
 1  5.43440726812681 -3.72671528582858 -2.35039922372237
 1  6.44649507140714  0.14926026342634 -2.56917953515351
 1  5.48903401280128  0.28083363116312 -1.12156642004200
 1  6.89060023892389 -1.07793599069907 -0.07866614501450
 1  7.85300069846985 -1.13858264856486 -1.55074455035504
 1  8.79873200460046  0.41075166996700 -1.69789257455746
 1  8.09058755685569  0.86387157535754 -0.11191548314831
 1  10.32871531863186 -1.62139958365837 -0.16210336793679
 1  8.56151839613961 -1.32793160886089  2.16281464226423
 1  10.56106217561756 -1.26156003720372  2.41999389078908
 1  9.24259747134714  0.61810058765877  2.39096040114011
 1  10.99314295209521  0.80773353325333 -1.33413058465847
 1  10.83171291789179  1.66469534513451  0.40416429672967
 1  12.25842338453845 -0.52782522202220  0.97696137943794
 1  12.38844099809981 -0.82930115071507 -0.42979597709771
 1  13.54078894889489  1.37291683668367 -1.26948585318532
 1  13.19580162496250  1.88802305360536  0.70358614801480
 1  14.70786221202120 -0.38571608760876  0.10313212201220
 1  14.74248414831483  1.77015741124112  2.60879365236524
 1  14.18989626312631 -0.12267993989399  2.43480097819782
 1  16.00053708680868  0.49976639353935  2.33573005070507
 1  15.83807494239424  1.69799979337934 -0.89703967866787
 1  15.78632266486649  2.51767130263026  0.31906022922292
 1  17.53850516561656  0.93563673427343  1.20005019171917
 1  17.56881440564056 -0.04490632143214 -0.32145352275228
 1  18.29466447354736  2.42568911671167 -1.58837182548255
 1  18.62579257535754  2.99029293619362  0.14952162266227
 1  19.93770633183318  0.77773061926193  0.43033638443844
 1  19.67865618361836  0.78017306690669 -2.41089321452145
 1  20.89664395439544 -0.47882968476848 -1.27186131953195
 1  19.06427915491549 -0.35274299269927 -1.71760983568357
 1  20.77289406800680  3.00402998209821 -0.01644089048905
 1  22.04203194349435  2.09755633833383 -0.50708342334233
 1  20.78362501540154  2.94337182438244 -1.47245204150415
 1 -0.17047267236724 -4.09807255665567  2.38785713371337
 1 -1.35581526252625 -5.53095036873688  3.25747638423842
 1 -1.66172018531853 -3.92890136723672  3.74250840404040
 8 -11.54079245354535  3.94911971117112 -0.99709152285228
 1 -12.92683319481948  2.66921816191619 -0.89820042504250

