%nproc=4
%Mem=2GB
# td=(NStates=1) iop(3/107=0140000000,3/108=0140000000) iop(3/107=0140000000,3/108=0140000000) CAM-B3LYP/6-31G(d,p) 

TD

0 1
12 -6.92615518761876  0.60203934803480  0.16727434693469
 6 -4.66633373987399 -2.14800322212221  0.38699897689769
 6 -4.07996981238124  2.77253888698870  0.90633351495150
 6 -8.90031273597360  3.17301132523252 -0.28494799649965
 6 -9.27833593119312 -1.61508453805381 -0.73543360206021
 7 -4.77719279117912  0.22791218891889  0.66894592669267
 6 -3.97862512811281 -0.94242394919492  0.57528808420842
 6 -2.53195661426143 -0.77187894709471  1.04558662096210
 6 -2.48733869966997  0.66801695049505  1.39240140264026
 6 -3.90460672357236  1.43100318551855  1.04022879757976
 6 -2.28966525222522  1.04217601350135  2.71709627242724
 6 -1.73407215561556 -1.18725128852885 -0.05171384508451
 6 -0.32525064336434 -1.33102480908091  0.35439451295130
 6  0.69348042724272 -1.47171440834083 -0.67489566336634
 8  0.67129719781978 -1.05008762126213 -1.92356334653465
 8  1.98181846844684 -2.04732503110311 -0.14240916341634
 7 -6.63659540174017  2.55532590259026  0.20462421032103
 6 -5.42572313321332  3.19624826802680  0.58847514371437
 6 -5.60189440464046  4.73879356415642  0.62697756635664
 6 -6.98525923932393  4.79079517001700  0.20772735603560
 6 -7.62298400230023  3.50455926432643 -0.04592976157616
 6 -4.61383630393039  5.96492392289229  0.67008467646765
 6 -7.81601316261626  6.04726164626463  0.09279880358036
 8 -7.46883079927993  7.22670428702870  0.34382223902390
 7 -8.85611916541654  0.65830668986899 -0.26750940004000
 6 -9.40114378677868  1.97017175247525 -0.47452850515051
 6 -10.88996562686269  1.68206807790779 -0.88722450365037
 6 -10.90737509500950  0.25416632103210 -0.85625648114811
 6 -9.71702336563656 -0.28227639083908 -0.60592266896690
 6 -12.03007978327833  2.62636882998300 -0.87695234603460
 6 -12.19073219371937 -0.46479004130413 -1.28354648834883
 6 -12.54822168426843 -0.50656282148215 -2.80991378607861
 7 -7.03290977387739 -1.34106666796680 -0.14771741624162
 6 -8.19639230083008 -2.15027502420242 -0.42098529652965
 6 -7.81640922602260 -3.66711403380338 -0.48644965506551
 6 -6.51878749994999 -3.61788094899490 -0.23315157575758
 6 -6.05900218891889 -2.24839365386539 -0.04225804150415
 6 -8.53369189268927 -4.78275565336534 -0.91796461236124
 6 -5.32321852635264 -4.43528932703270  0.02901092679268
 8 -5.22962471117112 -5.57435797409741  0.05729623622362
 6 -4.07583130853085 -3.42461302050205  0.36453110031003
 6 -3.46953046394639 -3.92207838333833  1.69708942194219
 8 -4.11649688978898 -4.13179991479148  2.78596726652665
 8 -2.03517519241924 -3.79781608690869  1.76538647784778
 6 -1.32435095719572 -3.97591268136814  3.10982540774077
 6  3.05417731053105 -2.26396157305731 -1.04141538563856
 6  3.98719248664867 -1.24421142224222 -0.66047157945795
 6  5.12219297469747 -0.97634450585058 -1.46811301290129
 6  5.41542552635264 -1.59498263296330 -2.78501548374838
 6  6.14832865746575 -0.09684733763376 -0.93728028652865
 6  7.61739043304330 -0.64362014411441 -0.75555229252925
 6  8.58525108540854  0.24738037263726 -0.24827330783078
 6  9.92078516791679 -0.20585750605061  0.21087278157816
 6  9.72219973627363 -1.02325113981398  1.44763913271327
 6  11.17157948794880  0.67868272247225  0.21243608200820
 6  12.59162443294329  0.00081138833883  0.20226853805381
 6  13.69065060766077  1.13898117281728  0.25617851625163
 6  14.91692802800280  0.48992227032703  0.31160582268227
 6  15.15700068816882  0.00529824932493  1.50452037603760
 6  16.11680130853085  1.41490639263926  0.09542274757476
 6  17.26666614471447  0.90326555095510 -0.09948682258226
 6  18.49857940534054  1.80148733993399 -0.36877702450245
 6  19.82391459255926  1.25545404020402 -0.55464554825483
 6  20.24639444074408  0.28119354965497 -1.83832962416242
 6  20.78562573147315  2.30752217021702 -0.43704880078008
 1 -3.16405704400440  3.53934518551855  1.20583998569857
 1 -9.76025000750075  3.78878796389639 -0.39618325222522
 1 -10.26392888448845 -2.08150855015502 -0.99736256215622
 1 -2.37546006280628 -1.49522714051405  1.86784683298330
 1 -1.55712505110511  0.87497797399740  0.69840629402940
 1 -1.41546292999300  0.73741205560556  3.02904361546155
 1 -2.43990216411641  2.09753833023302  2.90426654445445
 1 -2.89512184468447  0.61550943624362  3.76892276137614
 1 -2.17240626092609 -2.46094736773677 -0.28178596539654
 1 -2.43601877087709 -0.64836630953095 -1.13606339713971
 1  0.15243324162416 -0.37198863216322  0.84944080928093
 1 -0.00692441224122 -2.19454578837884  1.07584781688169
 1 -3.52578710911091  5.67550537843784  0.09175413311331
 1 -4.92856313691369  7.10236291219122 -0.02054514841484
 1 -4.46904793299330  6.30000896189619  1.85548332063206
 1 -8.93061607570757  5.70473558275827 -0.20549692549255
 1 -12.12562211581158 -1.47370823832383 -0.59309373657366
 1 -13.17347356235624 -0.00741434163416 -0.60022765916592
 1 -13.41377920102010 -1.20642275767577 -2.67179429652965
 1 -12.52579954375438  0.24414183568357 -3.46394856435644
 1 -11.73497032143214 -1.06066938393839 -3.49626623402340
 1 -8.83602278557856 -4.87734429002900 -1.84540676867687
 1 -8.16599181378138 -5.73406341894190 -0.93658331023102
 1 -9.41243852385239 -4.45505746694670 -0.26577196769677
 1 -3.15278485988599 -3.54852857775778 -0.40858916571657
 1  3.63965558095809 -3.45370264406441 -0.73933965106511
 1  2.70290457925793 -1.78435435043504 -2.15652588788879
 1  3.92048937663766 -1.12383513191319  0.22139574117412
 1  4.74411746874687 -1.25285875837584 -3.70200031503150
 1  6.40350392879288 -1.54875355075508 -3.13380460436044
 1  5.07517134453445 -2.50224283858386 -2.79983416721672
 1  6.17057747964796  0.49630496789679 -1.62676529372937
 1  6.33539864926493  0.49768531633163 -0.07348161156116
 1  7.67821900080008 -1.25844404150415  0.19910163176318
 1  8.00535593399340 -0.96421521182118 -1.73556303220322
 1  9.33021515291529  1.09823041784178 -0.99044182948295
 1  8.22672117021702  0.83879906810681  0.56277198559856
 1  10.40040248734873 -1.07507495119512 -0.52330948854886
 1  8.97982022632263 -1.58753756945694  1.24349271007101
 1  10.83614968436844 -1.64538842004200  1.64271616301630
 1  9.71006421802180 -0.24393561596160  2.06051735683568
 1  11.11599523732373  1.16037879777978 -0.66246341794179
 1  11.05488523512351  1.65824470007001  1.10625450575057
 1  12.68220576277628 -0.44952739223922  1.18064174747475
 1  12.52583473747375 -0.47477569816982 -0.78918191569157
 1  13.66750162016202  1.69539908490849 -0.40812971757176
 1  13.44563660846085  1.68797304860486  0.79110489988999
 1  14.88226965276528 -0.48285580158016 -0.38205639683968
 1  15.00016991689169  0.84318471397140  2.21665443844384
 1  14.51092836633663 -0.68561623352335  1.69284678277828
 1  15.96937397049705 -0.46310989408941  1.56223270097010
 1  15.62683381828183  1.98003799719972 -0.62233220792079
 1  16.06258029062906  2.21390092559256  0.74974329752975
 1  17.76329764486449  0.13328649924992  0.49934012071207
 1  16.91033855805581  0.12883105230523 -1.02160353775378
 1  18.05587059415942  2.67027357515752 -1.08254124242424
 1  19.00048004410441  2.38194210111011  0.55260193069307
 1  19.88945150635064  0.44527737393739  0.49912326312631
 1  20.30337865586559  1.01630668026803 -2.94364648984898
 1  21.23057734773477 -0.36392819461946 -1.96240037343734
 1  19.22748547554756 -0.39631735013501 -1.79077715241524
 1  20.71053783238324  2.91678125722572  0.58475922952295
 1  21.85414315461546  2.03451003370337 -0.27200991599160
 1  20.87977463036303  2.96763425062506 -1.17923271957196
 1 -0.33233885898590 -4.51512426182618  2.87458580658066
 1 -1.84364404540454 -5.08497577127713  3.46557719431943
 1 -1.51249526282628 -3.00277875497550  3.73715786898690
 8 -11.78187656195620  3.85444024322432 -0.70742255595560
 1 -13.08316882838284  2.27890913101310 -1.54069467446745

