%nproc=4
%Mem=4GB
# td=(NStates=1) iop(3/107=0140000000,3/108=0140000000) iop(3/107=0140000000,3/108=0140000000) CAM-B3LYP/6-31G(d,p) 

TD

0 1
12 -5.63893540014001  1.22643751805181  0.25675428062806
 6 -5.08648903610361 -2.15987445074507 -0.23084995179518
 6 -3.31892068116812  1.22170245504550  2.73017839113911
 6 -6.15404420012001  4.55859912411241  0.63286349514951
 6 -8.05708147524753  1.16838768946895 -2.36675434893489
 7 -4.47478173147315 -0.30165835763576  1.12183352215222
 6 -4.29098262576258 -1.59155285688569  0.68810115971597
 6 -3.21033415791579 -2.33511681448145  1.50901526522652
 6 -2.81414458545855 -1.22057494839484  2.61008756485649
 6 -3.55318274567457 -0.01552418011801  2.12324690989099
 6 -3.40823386278628 -1.78553199459946  3.92127482688269
 6 -1.95351054425443 -2.71861927122712  0.69900520602060
 6 -1.00217186068607 -3.62499007960796  1.37918150615062
 6  0.28804390489049 -3.85233907460746  0.65664385908591
 8  0.53495355965597 -3.54383169676968 -0.52008824302430
 8  1.17031387708771 -4.66645626292629  1.25162977027703
 7 -4.93035385168517  2.63565294219422  1.44886511821182
 6 -4.05859794959496  2.34668208990899  2.46183678697870
 6 -3.71031053475348  3.66782528472847  3.05523607980798
 6 -4.52576312901290  4.62591411971197  2.60876014731473
 6 -5.28648475267527  3.97149524472447  1.55873196549655
 6 -2.81775713881388  3.81540891669167  4.34595878527853
 6 -4.60051658225823  6.11163858435844  2.92127163196320
 8 -4.08998904690469  6.56689457745775  3.88769266916692
 7 -6.86747054695470  2.55862575837584 -0.76124778107811
 6 -6.96835955075508  3.93739335653565 -0.35490717941794
 6 -7.99650483688369  4.52407913271327 -1.16181029052905
 6 -8.46003545684568  3.57650458035804 -2.03632257665767
 6 -7.80101899239924  2.32050805960596 -1.75639158565857
 6 -8.32693568446845  5.99389929932993 -1.20988049684968
 6 -9.47097146044605  3.76035643384338 -3.18250288308831
 6 -8.74863631733173  3.80690883708371 -4.58458486248625
 7 -6.40191861086109 -0.08600361806181 -1.00779587158716
 6 -7.39525905550555 -0.00351642024202 -2.03446765746575
 6 -7.55169267646765 -1.27841954555456 -2.79981250385039
 6 -6.56325587438744 -2.13007257905791 -2.05004116981698
 6 -5.90490890629063 -1.40634419951995 -1.01903803420342
 6 -8.45526098389839 -1.58520864686469 -3.84361125732573
 6 -6.23915758285829 -3.48835441934193 -2.01512506760676
 8 -6.45054945044504 -4.53062076047605 -2.67512377747775
 6 -5.12474103620362 -3.57342539513951 -0.87158947874787
 6 -5.45021249864986 -4.64097953905391  0.16618028982898
 8 -6.01132690429043 -4.44371337943794  1.20450681408141
 8 -5.12154185238524 -5.83770496689669 -0.30184332893289
 6 -5.58197576177618 -6.83928578187819  0.53043487328733
 6  2.36642761596160 -5.12740386058606  0.57159111351135
 6  3.40058459345935 -4.13010317121712  1.01890979077908
 6  3.96965635583558 -3.26379925002500  0.10801443644364
 6  3.68094243314331 -2.95540048134813 -1.21954145864586
 6  5.18733515931593 -2.36986203380338  0.64022782158216
 6  6.51308617991799 -2.76143906910691  0.02971443884388
 6  7.62955827942794 -1.89980933643364  0.59726541704170
 6  9.00810163146315 -2.04654948854885 -0.09055683818382
 6  9.63049943164316 -3.42420306070607  0.00006654895490
 6  10.01852243134313 -0.93384362176218  0.34018653415341
 6  11.43586088848885 -0.84472407930793 -0.31415018121812
 6  12.27737542614261  0.36504113161316  0.09721656925693
 6  13.56522897869787  0.45331020092009 -0.61421618481848
 6  14.43578187718772 -0.69171857445745 -0.41342549344934
 6  14.32084802440244  1.80217638923892 -0.24626388118812
 6  15.51953614401440  2.16983501170117 -1.00547554255426
 6  16.08015059945994  3.50798555135514 -0.62018263146315
 6  17.44415966506651  3.93625146674667 -1.23892782798280
 6  17.29945253495350  4.01925681738174 -2.75498772297230
 6  17.91946135223522  5.23767903320332 -0.62394185308531
 1 -2.59515523832383  1.17454172957296  3.58570903930393
 1 -6.11985996479648  5.70100548094810  0.42171116281628
 1 -8.74681508870887  1.14585488838884 -2.97327280608061
 1 -3.70658172297230 -3.22162747814781  1.98226628742874
 1 -1.78025514941494 -1.05613327492749  2.57445872197220
 1 -2.68918869796980 -2.78741190239024  4.23191673567357
 1 -3.36961775447545 -0.97154705910591  4.59285131493149
 1 -4.42801531323132 -2.15970505140514  3.86117006750675
 1 -2.13418873257326 -3.01811132843284 -0.19952057585759
 1 -1.39557739013901 -1.48310742704270  0.48450657225723
 1 -0.91829726322632 -3.43905520112011  2.40146436513651
 1 -1.54621934353435 -4.60096722792279  1.14491628962896
 1 -1.80318043184318  3.50068959335934  4.05673158285829
 1 -2.73967495759576  4.83150035603560  4.61912817051705
 1 -3.31431442644264  3.15933693119312  5.19153415941594
 1 -5.22479554345434  6.73848804320432  2.23278860026003
 1 -10.31776090959096  2.91474213131313 -3.16513976567657
 1 -10.13262406030603  4.89614345844584 -2.90512080278028
 1 -9.62525232503250  3.70573898789879 -5.26060126242624
 1 -8.57331684108411  4.71224096949695 -4.55291524652465
 1 -8.11723157215721  2.90971032983298 -4.53971389618962
 1 -8.32421001060106 -0.73903444634463 -4.72098309660966
 1 -8.45812679567957 -2.69203260836084 -4.16681931893189
 1 -9.55081516101610 -1.58856567996800 -3.63357026372637
 1 -4.20856821422142 -3.89630445704570 -1.51401468836884
 1  2.61030216321632 -6.32610055305531  0.71057701460146
 1  2.17078782218222 -4.89921689778978 -0.48936238583858
 1  3.64036615891589 -4.05438472027203  2.03351835943594
 1  2.92391737843784 -3.80297591869187 -1.71704424542454
 1  3.18200281358136 -1.82864642394239 -1.53226569706971
 1  4.51599377337734 -3.18201193039304 -2.01468039393939
 1  4.81598163906391 -1.34233065706571  0.35416730023002
 1  5.11205973327333 -2.26921855425543  1.70666554685469
 1  6.84579210591059 -3.93470666276628  0.36968485248525
 1  6.54510467086709 -2.66711432043204 -1.11291188668867
 1  7.42686161746175 -0.78943226832683  0.31730897639764
 1  7.64633673657366 -2.16328291139114  1.66980136543654
 1  8.63846795609561 -1.96643491869187 -1.31407474557456
 1  8.96352087078708 -4.22542131353135 -0.40560435283528
 1  10.65234457525753 -3.56126032813281 -0.75806592009201
 1  9.83040210161016 -3.58172926442644  1.07685812851285
 1  9.62588173877388  0.03115884208421  0.16944230803080
 1  10.04601469896990 -1.35486202010201  1.47578711871187
 1  11.91765690699070 -1.83885391729173  0.19404503130313
 1  11.33519960666067 -0.89764266916692 -1.38500983458346
 1  11.71284231773177  1.08380280948095  0.11895234003400
 1  12.48251307460746  0.07528872027203  1.14417269746975
 1  13.21182798349835  0.65432986528653 -1.62448468716872
 1  14.93657299559956 -0.86406461916192  0.56687236723672
 1  13.75510108110811 -1.47763677997800 -0.59551587308731
 1  15.38863985238524 -0.83034623282328 -1.13792068456846
 1  13.51264945914592  2.55743036213621 -0.35253704140414
 1  14.48340504080408  1.76657694689469  0.89657687158716
 1  16.25110676647665  1.43914252695269 -1.02678916961696
 1  15.15760134353435  2.30182409520952 -1.97128850855086
 1  15.26538794339434  4.18306368436844 -0.89131112921292
 1  16.09869263936394  3.58690533193319  0.36294619501950
 1  18.13153683508351  3.12164365556556 -1.05604468406841
 1  16.45199591999200  4.88212474137414 -2.83492585238524
 1  18.43137906140614  4.16773628692869 -3.24135874097410
 1  17.03692389258926  3.13732480248025 -3.15272330693069
 1  18.10333638083808  5.13281449894990  0.56259792399240
 1  19.07322484478448  5.52759691189119 -0.93552046644664
 1  17.29777132803280  6.08095759885989 -0.76912097339734
 1 -5.43515881728173 -7.78612804590459  0.00548701100110
 1 -6.67123155345535 -7.09505659225923  0.67236074357436
 1 -5.11988015661566 -6.69419099469947  1.56021047764776
 8 -7.76659425102510  6.87195369616962 -0.51908969296930
 1 -9.09087738483848  6.40082572747275 -1.82213789658966

