%nproc=4
%Mem=2GB
# td=(NStates=1) iop(3/107=0140000000,3/108=0140000000) iop(3/107=0140000000,3/108=0140000000) CAM-B3LYP/6-31G(d,p) 

TD

0 1
12 -6.68038061016102  0.58542768686869  0.27438505800580
 6 -4.55421252775277 -1.87438586038604  0.36886716371637
 6 -4.34019583498350  2.83829546264626  0.96504938653865
 6 -8.88273097779778  3.17060108420842 -0.13836333803380
 6 -9.43824192179218 -1.83463649324933 -0.51436149484949
 7 -4.82955802770277  0.38583798149815  0.52993202530253
 6 -4.01047831343134 -0.66846655345535  0.55040559595960
 6 -2.47181059965997 -0.33847560676068  0.93993605590559
 6 -2.49328929472947  1.04804495329533  1.26218838133813
 6 -3.94194045694569  1.53398348354835  0.79719449414941
 6 -2.08097438313831  1.38147994389439  2.68364292709271
 6 -1.55098384678468 -0.74204676807681 -0.25228390209021
 6 -0.01111923022302 -0.91637334393439  0.34809388288829
 6  0.88145922512251 -0.96089332623262 -0.94453262706271
 8  0.73487355545555 -0.70248286078608 -2.05349633983398
 8  1.87103739033903 -1.99641994059406 -0.49844476697670
 7 -6.57971971417142  2.58038840884088  0.18799254715472
 6 -5.56637719861986  3.32636127932793  0.68023431963196
 6 -5.86590080528053  4.71820150495049  0.77511237983798
 6 -7.21772248564857  4.89444553505351  0.51856844014401
 6 -7.74834653855386  3.53611241964196  0.21421625302530
 6 -4.93309823012301  5.90745817631763  0.92864053205321
 6 -8.11251281258126  6.12847976807681  0.25837536123612
 8 -7.63168708490849  7.22009362596260  0.33368122492249
 7 -8.81119467296730  0.68849970917092 -0.19573222232223
 6 -9.48296196859686  1.79252398769877 -0.52518357065707
 6 -10.79770640094010  1.39212908400840 -0.82757853905391
 6 -10.93386774427443 -0.02052114771477 -1.10236109160916
 6 -9.60412207550755 -0.41096926012601 -0.58905098179818
 6 -11.79773654895489  2.33317951105111 -1.20878552935294
 6 -12.26431955245524 -0.74974853715372 -1.25317345104510
 6 -12.22440930303030 -1.09790195539554 -2.76582937763776
 7 -6.91674815771577 -1.41361392269227 -0.00839348384839
 6 -8.04475713731373 -2.33217321402140 -0.19414261226123
 6 -7.56429401450145 -3.77621494389439 -0.36056706680668
 6 -6.26566218741874 -3.63484264516452 -0.12023028362836
 6 -5.97233352205220 -2.17319613411341  0.05925210951095
 6 -8.41876039953995 -4.86132351015102 -0.52973578947895
 6 -4.89942614711471 -4.39865566366637  0.05749377507751
 8 -4.70734248294829 -5.59512005030503 -0.00473996739674
 6 -3.76695042044204 -3.28827938713871  0.39780442764276
 6 -3.33738724962496 -3.53503967946795  1.87624733773377
 8 -3.81222646274627 -3.77648438323832  2.82876154595460
 8 -1.89113078797880 -3.64410071537154  1.76432637183718
 6 -1.00623914601460 -3.76855194529453  3.00067449264927
 6  2.94501639443944 -2.19923510041004 -1.33845508960896
 6  3.93251701910191 -1.23816081718172 -1.01333686598660
 6  5.05063581898190 -0.99534640604060 -1.74737093869387
 6  5.27255123892389 -1.71433456815682 -3.07177415961596
 6  6.30311413601360 -0.01819947284728 -1.52322888138814
 6  7.45134382838284 -0.67519330143014 -1.04200093739374
 6  8.50249280958096  0.45701133573357 -0.45529400990099
 6  9.86709979937994 -0.38268518881888 -0.02678098379838
 6  9.49074659095909 -1.26175499019902  1.37945231403140
 6  10.92951528152815  0.68438329252925  0.01163600200020
 6  12.30875614611461 -0.10822951575158  0.06127443864386
 6  13.44135567816782  0.95787306200620  0.14529742814281
 6  14.66281261646165  0.24104738283828  0.49060372247225
 6  14.74431942004200 -0.18969124962496  1.99187911191119
 6  15.98643827222722  1.16081098309831  0.13127633293329
 6  17.31331080918092  0.60959618401840  0.24807793389339
 6  18.22179172657266  1.72397958915892 -0.05448559535954
 6  19.69200140124012  1.08917741254125 -0.20660074377438
 6  19.70007980928093  0.24478990929093 -1.45567135833583
 6  20.81582875177518  2.04896631463146 -0.36611170707071
 1 -3.45818645694570  3.87264851585158  1.11664106580658
 1 -9.79510349284929  3.78740782588259  0.09781614771477
 1 -10.31381387298730 -2.69480988028803 -0.68453127902790
 1 -2.20604312111211 -0.79208682648265  2.06481652995300
 1 -1.88547788638864  1.49942041824182  0.56734318771877
 1 -1.12968435213521  1.25267358175818  3.12226293739374
 1 -2.16973514741474  2.95998457485749  2.75278139593959
 1 -2.74395672817282  0.80278816411641  2.92816868596860
 1 -1.56280530083008 -1.85850712371237 -0.78533632043204
 1 -1.67952312131213 -0.11832330523052 -1.11181097189719
 1  0.41195919421942 -0.21812324562456  1.29095496069607
 1  0.31039731993199 -1.80250658445845  0.84530476257626
 1 -3.97075160556056  6.03112093999400  0.01422638033803
 1 -5.28943922452245  7.03604628052805  0.61540844694469
 1 -4.63011403960396  6.24146310731073  2.07959573187319
 1 -9.13203621772177  5.82296740594059  0.35862948714872
 1 -12.18211776537654 -1.80031089858986 -0.63133756095609
 1 -13.23044925992599 -0.14039763996400 -1.25046268266827
 1 -12.89527735083509 -1.95579769516952 -3.06109322642264
 1 -12.60613757755776 -0.30002258075808 -3.26070824032403
 1 -11.08401522592259 -1.52795611261126 -3.15929253665367
 1 -8.47413659695970 -4.92445900150015 -1.60794302230223
 1 -8.00256547114711 -5.87153716631663  0.24786513461346
 1 -9.53536081608161 -4.67806976817682 -0.13817920842084
 1 -3.22167174857486 -3.84477820272027 -0.62185049184919
 1  3.33846546194619 -3.03406067986799 -1.07859357645764
 1  2.55815010381038 -1.95611152615261 -2.23767400270027
 1  3.64283161086109 -0.84683743214321 -0.04852125052505
 1  4.45433849084908 -1.58385185768577 -3.83234334933493
 1  5.80766434483448 -1.04801347674768 -3.69081030493049
 1  5.24111793919392 -2.61473408770877 -2.77455163896390
 1  6.69765018691869  0.63793913131313 -2.46048866606661
 1  5.67208231763176  0.85255080288029 -0.47450171357136
 1  7.27844902380238 -1.28601679877988 -0.11930020842084
 1  8.18092349074908 -1.11956074637464 -1.82058153405341
 1  8.67224935633563  1.14699529432943 -1.39927271257126
 1  7.95171366946695  0.63721891009101  0.55124083248325
 1  10.04760720782078 -1.02147959165917 -0.90822798039804
 1  8.43782602690269 -1.83458227392739  1.42069042984298
 1  10.57363343274328 -1.95509939113911  1.70850274167417
 1  9.17941115271527 -0.52191341374137  2.45904720982098
 1  10.98082171997200  1.19490225012501 -0.83284045564556
 1  10.96635638223822  1.33282215781578  0.83041692199220
 1  12.36395393759376 -0.73345578507851  1.06991067436744
 1  12.52048420242024 -0.71145936653665 -0.96252925042504
 1  13.18071294129413  1.15508505350535 -0.78550745534553
 1  12.98767081188119  1.43000725202520  0.86431222062206
 1  14.72472389818982 -0.74692220822082 -0.16099429062906
 1  14.71907180708071  0.50082047754775  2.66310908390839
 1  13.96134340784078 -0.93489116101610  2.29938743684368
 1  15.60166719981998 -0.64440802390239  2.07662414011401
 1  15.81312244714471  1.68360835423542 -0.88314828952895
 1  16.07993202580258  1.71438097359736  1.00091841504150
 1  17.65911722682268  0.28313148374837  1.21824201090109
 1  17.59275679987999 -0.55972780358036 -0.68015939333933
 1  17.77192219931993  2.22137868566857 -0.85680866916692
 1  18.02088208430843  2.52001590849085  0.65512218271827
 1  20.38648120932093  0.28722156835684  0.70466381718172
 1  19.33529184718472  0.64439948954896 -2.42994511971197
 1  20.46292058205820 -0.38501030283028 -1.34484861826183
 1  19.11407413441344 -0.43571128952895 -1.44285235993599
 1  20.83916069466947  2.89199877897790  0.55235598919892
 1  21.65946368666867  1.37584416711671 -0.58515123012301
 1  20.73888054095410  2.67894538173817 -1.02070686698670
 1 -0.26463208830883 -4.38514126352635  2.52307065506551
 1 -1.45004468546855 -4.55883315701570  3.73323395999600
 1 -0.62923693699370 -2.72867134423442  3.47162131533153
 8 -11.78181655595560  3.53003780298030 -0.84017583128313
 1 -12.64746525802580  1.63081432153215 -1.90878148314831

