%nproc=4
%Mem=4GB
# td=(NStates=1) iop(3/107=0140000000,3/108=0140000000) iop(3/107=0140000000,3/108=0140000000) CAM-B3LYP/6-31G(d,p) 

TD

0 1
12 -5.73210471707171  1.21821669596960  0.13813241844184
 6 -5.05575596279628 -2.15190365366537 -0.30242710951095
 6 -3.42813160226023  1.14319460426043  2.83242861616162
 6 -6.12988178387839  4.54814807900790  0.65176538533853
 6 -8.01717748484849  1.16584743544354 -2.34791246474647
 7 -4.44922917621762 -0.30452864466447  1.12543388218822
 6 -4.31205473297330 -1.58900260186019  0.75614796439644
 6 -3.17846097059706 -2.30751405420542  1.47575193889389
 6 -2.90446361736174 -1.36946983788379  2.70708726482648
 6 -3.61437886528653 -0.05632826052605  2.15677026222622
 6 -3.47476051545154 -1.76759020042004  4.12999569896990
 6 -1.92903809700970 -2.58712612191219  0.65019032453245
 6 -0.91710335383538 -3.45753333393339  1.45716930493049
 6  0.24851995249525 -3.81054489518952  0.59659785448545
 8  0.53184324862486 -3.35304261786179 -0.51865810001000
 8  1.05798264396440 -4.75242485978598  1.13070767806781
 7 -4.87638845514551  2.62061143804380  1.42015224692469
 6 -4.05975806560656  2.36362378407841  2.51145174847485
 6 -3.75075457915792  3.59050755295530  3.19175973217322
 6 -4.40635118781878  4.59725125342534  2.53456272757276
 6 -5.23112921712171  3.92620071527153  1.47886397869787
 6 -2.83425878897890  3.72638001380138  4.38831302070207
 6 -4.57293382398240  5.97780520102010  2.97899740454045
 8 -3.86081612961296  6.58672656065607  3.75940984088409
 7 -6.94286808670867  2.68115801160116 -0.66444810111011
 6 -7.02735545034504  4.05555517271727 -0.35897758645865
 6 -7.97256244264426  4.67333405820582 -1.24705881538154
 6 -8.44673412671267  3.68724565446545 -2.07503644804480
 6 -7.77344623512351  2.44748075687569 -1.72832877937794
 6 -8.28170116101610  6.09716962636264 -1.25414492329233
 6 -9.35293965726573  3.80856125432543 -3.25344997779778
 6 -8.63415486918692  4.07454560076008 -4.59037544154415
 7 -6.35452387138714 -0.17438245594559 -1.03014810681068
 6 -7.40028955855586 -0.06008207680768 -1.98127233793379
 6 -7.63300080728073 -1.37561926552655 -2.70437295989599
 6 -6.69987953675368 -2.24860443224322 -2.15167133283328
 6 -5.97770618601860 -1.46908047314731 -1.07240337073707
 6 -8.49535499329933 -1.65411553755376 -3.82321921812181
 6 -6.30958462556256 -3.61781736563656 -2.00586414151415
 8 -6.71984638013801 -4.53208090649065 -2.60059632473247
 6 -5.07550611271127 -3.56930498309831 -0.85322764256426
 6 -5.32328980638064 -4.67574301540154  0.11669534133413
 8 -5.75324109570957 -4.62618162626263  1.27475383878388
 8 -4.85529522772277 -5.85349654605460 -0.35924906950695
 6 -5.06166373057306 -7.02709456275628  0.51134296409641
 6  2.41563253645365 -5.13096421662166  0.44195815021502
 6  3.40268480348035 -4.22933309420942  0.96564446424642
 6  4.09737912811281 -3.27573044314431  0.14966860186019
 6  3.77286162506251 -3.11136607790779 -1.33161266576658
 6  5.01248767456746 -2.35259030663066  0.65580937973797
 6  6.43813868516852 -2.68997192239224  0.10761222862286
 6  7.54440976457646 -1.64927428292829  0.48767445794579
 6  8.84334515581558 -1.97567240084008 -0.21635941844184
 6  9.50318670037004 -3.44294493489349  0.13653019531953
 6  9.83090366946695 -0.85602583998400  0.35097761326133
 6  11.25978328072807 -0.82793240014001 -0.16468523472347
 6  12.21514920352035  0.39647427492749  0.29532638023802
 6  13.54433688948895  0.49109397929793 -0.58097286048605
 6  14.37395569456946 -0.68991839443944 -0.24071822272227
 6  14.29930587018702  1.76718288988899 -0.17225648044804
 6  15.52888707910791  2.11566959515952 -1.10995599059906
 6  16.12959554395439  3.43344809760976 -0.67852846604660
 6  17.35474072317232  3.83990183178318 -1.38055199039904
 6  17.14890748044805  4.07772266396640 -2.80414263846385
 6  17.97716712281228  5.12914818011801 -0.66306576547655
 1 -2.62911863466347  1.15887016241624  3.66872734113411
 1 -6.08982696149615  5.83903928432843  0.72124111581158
 1 -8.79728013521352  0.96724702760276 -3.07936341514151
 1 -3.43421448624862 -3.18227354275428  2.00212827362736
 1 -1.91763888778878 -1.19671733333333  2.72915419151915
 1 -3.10364014311431 -2.79273243444344  4.36030957495750
 1 -3.41839263196320 -0.86610651505150  4.76104813461346
 1 -4.46205871757176 -2.16534561546155  4.14001795229523
 1 -2.09246456015602 -3.08632815011501 -0.29642026582658
 1 -1.51888972137214 -1.63147226352635  0.34093221482148
 1 -0.56941237473747 -2.75270656625663  2.20763498219822
 1 -1.54111883348335 -4.43522065326533  1.89821161916192
 1 -1.75662577637764  3.58496802120212  4.13533944364436
 1 -2.90618160826083  4.65295250125012  4.61098735643564
 1 -3.19799279427943  3.13163416091609  5.30485549154916
 1 -5.40794385828583  6.47409160356036  2.37803312471247
 1 -9.77917705120512  2.82432308940894 -3.22246549824983
 1 -10.32018281618162  4.51435527962796 -3.00431072177218
 1 -9.30512031183118  4.03196161016102 -5.58329353165317
 1 -8.14096360576058  5.06946669206921 -4.42672262726273
 1 -7.77365721472147  3.33975333413341 -4.62111203600360
 1 -7.88926651625163 -1.28858940184018 -4.67960895919592
 1 -8.59715069806981 -2.61434483958396 -3.97686032303230
 1 -9.49235931543154 -1.25411223462346 -3.53642054875488
 1 -4.28127548494849 -3.84627945454545 -1.50939422632263
 1  2.45826695969597 -6.27675561856186  0.68757471437144
 1  2.14996573997400 -4.92134911101110 -0.59974342394239
 1  3.74617673997400 -4.25479476127613  1.89932494009401
 1  2.55522050875088 -3.03778940004000 -1.38510105110511
 1  4.21448606190619 -1.96405996529653 -1.49976244674467
 1  4.24449662366237 -3.83939766896690 -2.12556148204821
 1  4.96079612051205 -1.28661508550855  0.07598948244824
 1  5.10794932223222 -2.26749838223822  1.81156603690369
 1  6.80742826952695 -3.65608880098010  0.52622050605060
 1  6.30122028242824 -3.01450905990599 -0.93933452895290
 1  7.24688361966197 -0.67132045714571  0.24493173867387
 1  7.72572467536754 -1.45840242334233  1.57531191649165
 1  8.90375448474848 -1.82887116231623 -1.26309964806481
 1  8.99850436913691 -4.27801657305731 -0.46621041344134
 1  10.54843418421842 -3.34344854695470 -0.12079219271927
 1  9.39587864926493 -3.67277836933693  1.39313975667567
 1  9.49156830743074  0.27525325152515  0.08159352315232
 1  9.93317341484148 -0.94541107500750  1.48343788378838
 1  11.81064620592059 -1.87937796969697 -0.10476484968497
 1  11.45292137883788 -0.83191609650965 -1.17878921252125
 1  11.72106313981398  1.29609403860386  0.09887033183318
 1  12.26757158045804  0.21215240664066  1.41116939713971
 1  13.25913271397140  0.58763319561956 -1.59814205290529
 1  14.48462780108011 -0.98360657335734  0.92253793379338
 1  13.93826939793979 -1.70286930323032 -0.55853217471747
 1  15.36853784218422 -0.52391558975898 -0.56266315881588
 1  13.65814400860086  2.81281590069007 -0.32253404110411
 1  14.37273397369737  1.75392568176818  0.90527774167417
 1  16.47612926872687  1.31650026272627 -1.22625911661166
 1  15.30763634703470  2.04439835263526 -2.19738111781178
 1  15.33590499509951  4.20949632763276 -1.07108910701070
 1  16.12945571567157  3.42382902430243  0.41720162056206
 1  18.16060974237424  3.20477196839684 -1.20231931153115
 1  16.55571629202920  4.98536506540654 -3.01089344914491
 1  18.20293621712171  4.24562407570757 -3.35044965006501
 1  16.50821102130213  3.26251732173217 -3.36323435803580
 1  18.18706475367537  4.78568978647865  0.47274893909391
 1  18.71486900920092  5.33610776297630 -1.23639055345534
 1  17.16859841074107  6.09761926502650 -0.80009407070707
 1 -4.52209751115111 -7.91656108920892  0.21300776307631
 1 -6.25793022332233 -7.11533862046205  0.47624113161316
 1 -4.77592576117612 -6.76198777437744  1.49379383598360
 8 -7.74714230583058  6.95860236103610 -0.51491927592759
 1 -9.33022131923192  6.32874851975197 -1.89753543634363

