%nproc=4
%Mem=4GB
# td=(NStates=1) iop(3/107=0140000000,3/108=0140000000) iop(3/107=0140000000,3/108=0140000000) CAM-B3LYP/6-31G(d,p) 

TD

0 1
12 -5.62102360896090  1.21472634693469  0.19841844704470
 6 -5.01726211341134 -2.15184364766477 -0.36682354915492
 6 -3.41778056715672  1.28358864366437  2.78879425272527
 6 -6.32247104280428  4.61654491869187  0.61457166596660
 6 -8.10564633173317  1.20004085478548 -2.42415008850885
 7 -4.38353260656066 -0.23968216001600  1.06181752055206
 6 -4.21312483998400 -1.62189589118912  0.64027637723772
 6 -3.11539466396640 -2.30683398619862  1.42190655435544
 6 -2.81831500250025 -1.33697658855886  2.51997855395540
 6 -3.57998542594259 -0.00808343604360  2.17835242044204
 6 -3.35555859525953 -1.79882332373237  3.86359905930593
 6 -1.83860905410541 -2.65180258955896  0.57361266676668
 6 -0.84106575007501 -3.42668024862486  1.36594018201820
 6  0.38103320382038 -3.82932677337734  0.64505269997000
 8  0.58695876017602 -3.41265857945795 -0.50853708790879
 8  1.18603544924492 -4.60346996429643  1.35905051235124
 7 -4.88785960226023  2.68105748264826  1.41006123782378
 6 -4.02518460826083  2.45575299699970  2.52214281758176
 6 -3.88710821452145  3.73573207540754  3.21817237343734
 6 -4.63552410511051  4.65787731603160  2.50255952725273
 6 -5.39626573077308  3.96318441364136  1.41335742804280
 6 -2.92345770887089  3.78756613241324  4.34017820722072
 6 -4.70770730133013  6.09900732123212  2.92251175597560
 8 -4.26438648664866  6.63820170817082  3.91824572447245
 7 -6.98461226112611  2.68045794159416 -0.64116577287729
 6 -7.06940965576558  3.95961557875788 -0.39733142184218
 6 -8.12178736513651  4.58212493729373 -1.17116122562256
 6 -8.64914436773677  3.62913984388439 -2.01520046444644
 6 -7.85780467096710  2.41944795359536 -1.69436538303830
 6 -8.64827781868187  5.99376928632863 -1.06950645944594
 6 -9.55798016131613  3.70349074727473 -3.19948458125813
 6 -8.79008046174618  4.12469061526153 -4.53755015901590
 7 -6.40264868386839 -0.18399341704170 -1.09419451145115
 6 -7.44847437703770 -0.04399046764676 -2.13811802250225
 6 -7.58804631183118 -1.27745944954495 -2.75529805240524
 6 -6.74582413121312 -2.18436800860086 -2.07818398409841
 6 -5.99954837023702 -1.44935850095010 -1.13423955435544
 6 -8.49417487528753 -1.50540066606661 -3.85756265246525
 6 -6.26780044714471 -3.60775635953595 -2.02614616971697
 8 -6.65188958445845 -4.56991468986899 -2.56351261636164
 6 -5.13494205630563 -3.57581563416342 -0.85829814961496
 6 -5.34145162256226 -4.59650509160916  0.18206187798780
 8 -5.63419919151915 -4.40190919901990  1.34271063446345
 8 -4.96308600680068 -5.80319151555156 -0.35987913251325
 6 -5.27902546674667 -6.94944679797980  0.46359818961896
 6  2.43232420562056 -5.03554467466747  0.67358131253125
 6  3.38375291029103 -4.06738689958996  1.08158605840584
 6  4.12698208840884 -3.35317818791879  0.21165480048005
 6  3.89229356825683 -3.26729167046705 -1.27412691719172
 6  5.19147557335734 -2.39198424602460  0.63262706150615
 6  6.48235310661066 -2.70606353155316 -0.02946147874787
 6  7.73367869146915 -1.92808216371637  0.48921461196120
 6  9.09772059335934 -2.15195002860286 -0.03632141464146
 6  9.65396177787779 -3.50059069946995  0.15695223752375
 6  10.10868144724472 -1.06980721812181  0.36292880838084
 6  11.55602290469047 -1.05094470137014 -0.33017178337834
 6  12.21813950255025  0.32735736323632  0.09988683628363
 6  13.71675413121312  0.34929979987999 -0.53469823302330
 6  14.59749804880488 -0.81157055965597 -0.37934208510851
 6  14.33029896949695  1.78560473207321 -0.22373162796280
 6  15.62290648104810  2.07733576177618 -0.92766776177618
 6  16.17310989538954  3.45532028482848 -0.51056166936694
 6  17.39393464256426  3.92655049664967 -1.34261819701970
 6  17.18966155585558  3.98695358705871 -2.76511873607361
 6  17.83717312341234  5.22987825312531 -0.80270972987299
 1 -2.70725644844484  1.34008828422842  3.55802627102710
 1 -6.36302428122812  5.77305268566857  0.70768976067607
 1 -8.92738314551455  1.30260056295630 -3.18407388618862
 1 -3.57792885768577 -3.16419173457346  1.86720478127813
 1 -1.81413853775378 -1.11083874547455  2.84852612871287
 1 -2.70919069816982 -2.65043820502050  4.13750729472947
 1 -2.91258205090509 -1.23779368376838  4.67131916171617
 1 -4.44762727442744 -1.94165324622462  4.14355830633063
 1 -2.13475878957896 -3.25240475777578 -0.33704432823282
 1 -1.45436326872687 -1.73303241954195  0.21426954855486
 1 -0.78900433393339 -3.08033932953295  2.34618883758376
 1 -1.39268398999900 -4.49956708790879  1.53468526652665
 1 -1.87887800160016  3.78887841224122  3.77386329602960
 1 -3.21739272937294  4.78218542454245  4.98724498219822
 1 -2.66933992899290  2.56921791929193  4.87334234023402
 1 -5.64403746764676  6.77111130553055  2.18864418581858
 1 -10.17238637213721  2.88784944204420 -3.32512576427643
 1 -10.23063386128613  4.56975081918192 -3.06037632833283
 1 -9.55756555635564  4.34925333933393 -5.46081128342834
 1 -8.27226673607361  5.04296404180418 -4.25107506250625
 1 -8.13824367336734  3.44120347914791 -4.91974189898990
 1 -8.16438402800280 -1.05755629852985 -4.75114611291129
 1 -8.91809279227923 -2.68677208230823 -3.99524216121612
 1 -9.66770685018502 -0.67202402580258 -3.86017292399240
 1 -4.16440379777978 -3.79035386198620 -1.38869215611561
 1  2.48931006400640 -6.14250219321932  0.91542749964996
 1  2.29379012241224 -5.16071304740474 -0.43073652325233
 1  3.61412353465346 -3.94275355715572  2.17759276687669
 1  2.72977796449645 -3.36996261736174 -1.39129167016702
 1  4.21282589588959 -2.27882144144414 -1.76543901440144
 1  4.19011118511851 -4.18604233343334 -1.92019094499450
 1  4.99048908980898 -1.37074349834983  0.06752863636364
 1  5.35171369866987 -2.17787942034203  1.62574745504550
 1  6.63756128282828 -3.82393558565857  0.16026391039104
 1  6.35196535693569 -2.84057166616662 -1.21938253375338
 1  7.39615854715472 -0.97994131923192  0.37608485398540
 1  7.62991509440944 -2.07653423652365  1.54661904720472
 1  8.98948305760576 -2.03068134333433 -1.19396273437344
 1  8.88165268396840 -4.30406917831783 -0.09522331473147
 1  10.53007234803480 -3.67757195929593 -0.59119923342334
 1  9.81317037843784 -3.82963405490549  1.07895833853385
 1  9.75841499209921 -0.18463273707371  0.22319768356836
 1  10.53429352685269 -1.30206674057406  1.42753229322932
 1  12.15130027132713 -1.93432346424642  0.03348897569757
 1  11.31589767646765 -1.24071697659766 -1.30275160876088
 1  11.83386441994199  1.24326875607561 -0.07575713091309
 1  12.63061788508851  0.29327051845185  1.07966624682468
 1  13.60563736443644  0.59171360366037 -1.62271451015102
 1  14.44150348864886 -0.90207842054205  0.92733841384138
 1  14.41723729472947 -1.74608362466247 -0.87685400690069
 1  15.63644463286329 -0.64278747694769 -0.83446033853385
 1  13.66109430363036  2.52243686278628 -0.47791957965797
 1  14.68347504780478  1.73244353355336  0.90455766966697
 1  16.29922157795779  1.40924953765377 -0.42794928562856
 1  15.59334491789179  1.98711262406241 -2.21408278797880
 1  15.33571497609761  4.07855323332333 -0.73477547564757
 1  16.18660143024303  3.53157979937994  0.65596549694970
 1  18.18814249564956  3.25645713691369 -1.05697477707771
 1  16.34756547694769  4.64963149204921 -2.99906226602660
 1  18.19046496999700  4.40966047934794 -3.27937254235424
 1  16.82579277947795  2.96859792979298 -3.19832786738674
 1  17.92224827202720  5.04840605810581  0.21627329152915
 1  19.06379390169017  5.57570172237224 -0.91248816321632
 1  17.09516106700670  6.09138864196420 -1.03112717401740
 1 -5.07402270367037 -7.63715314841484 -0.12420595829583
 1 -6.36841127142714 -7.00907799439944  0.62989649714971
 1 -4.63363153175318 -6.88989056465646  1.49298375497550
 8 -8.09859745134514  6.91362786358636 -0.34658244224422
 1 -9.32824112121212  6.32576822172217 -1.87364304710471

