%nproc=4
%Mem=2GB
# td=(NStates=1) iop(3/107=0140000000,3/108=0140000000) iop(3/107=0140000000,3/108=0140000000) CAM-B3LYP/6-31G(d,p) 

TD

0 1
12 -6.80018259035904  0.50419956405641  0.17634525402540
 6 -4.48250535703570 -1.98799722152215  0.40143042004200
 6 -4.16937875327533  2.90916254935494  0.84248713031303
 6 -9.10329303400340  3.00779480358036 -0.18064756645665
 6 -9.27100519811981 -1.84095712531253 -0.56915697439744
 7 -4.77377244914491  0.39823922162216  0.65165419751975
 6 -3.94348161376138 -0.71269097589759  0.67455801120112
 6 -2.45838925752575 -0.34304606380638  0.84615667796780
 6 -2.49728969476948  1.18210835963596  1.22993515601560
 6 -3.90813707660766  1.57722780798080  0.95327010171017
 6 -2.06700298599860  1.52327412331233  2.64784934773477
 6 -1.71732048044804 -0.79995255865587 -0.44071274497450
 6 -0.36065418371837 -1.37036874347435  0.17208628212821
 6  0.70121120032003 -1.35261249814981 -1.00904907870787
 8  0.58493856195620 -0.99048166066607 -2.09495048524852
 8  1.82623290989099 -1.79969026762676 -0.64506942944294
 7 -6.60800254245425  2.60709107910791  0.19217296519652
 6 -5.56471703260326  3.37614625782578  0.58330462666267
 6 -6.05781999719972  4.77999768456846  0.64997986658666
 6 -7.42735344874487  4.89605569606961  0.35784236753675
 6 -7.82641434533453  3.44342315071507  0.06233106450645
 6 -5.09375429572957  5.93775120562056  1.03643131113111
 6 -8.30691225252525  6.14856177627763  0.15043456715672
 8 -7.88852276847685  7.19248086468647  0.42693054985499
 7 -8.73111666516652  0.56655751495150 -0.40111276037604
 6 -9.49497316971697  1.68750348564857 -0.43481453375338
 6 -10.83703033333333  1.33806367746775 -0.70388616981698
 6 -11.06886124362436  0.01597250165016 -0.84735559105911
 6 -9.73920558385839 -0.43445160836084 -0.61700377707771
 6 -11.99922669796980  2.26931312441244 -0.97400205100510
 6 -12.17260038053805 -0.80758432073207 -1.13354148784878
 6 -12.35180204230423 -0.85952811801180 -2.73950674537454
 7 -6.77807429032903 -1.34288684998500 -0.14428707320732
 6 -7.92086474807481 -2.26936693339334 -0.36019921792179
 6 -7.52454003910391 -3.71789911231123 -0.37083809390939
 6 -6.25380100130013 -3.66562572347235 -0.02555081568157
 6 -5.82569885858586 -2.24304311881188  0.10443662796280
 6 -8.32963148664867 -4.98470584838484 -0.52206502240224
 6 -4.95121132563256 -4.38905470357036 -0.04030600490049
 8 -4.48627037573757 -5.65981651995200 -0.22809230263026
 6 -3.80953467886789 -3.33621418061806  0.37483213041304
 6 -3.23508701960196 -3.47246342184218  1.87249696269627
 8 -3.76215145524552 -3.53236997179718  2.93399206900690
 8 -1.84671634653465 -3.47860416571657  1.62275221442144
 6 -1.06866538863886 -3.52780787088709  3.00423484868487
 6  3.09691158395840 -1.99434461136114 -1.51007225132513
 6  4.11140490789079 -1.14527152825283 -1.17313284558456
 6  5.14980573597360 -0.82055892729273 -1.82777897949795
 6  5.44582856665667 -1.38816195089509 -3.17027400960096
 6  6.28776260086009  0.11842418951895 -1.16108266676668
 6  7.42507120112011 -0.44512029412941 -0.59826656395640
 6  8.52815537583758  0.62160779537954 -0.12031051155116
 6  9.75716880628063 -0.26098301860186  0.36349804410441
 6  9.50057757405741 -0.98555737043704  1.57634200300030
 6  10.85247757775778  0.73577843204320  0.36232107050705
 6  12.17275254575457 -0.17734642744274  0.78700701190119
 6  13.43784532713271  0.79375665036504  0.54180707910791
 6  14.94482081728173  0.10310358845885  0.64554921702170
 6  15.17385237333733 -0.48531081158116  2.08732865686569
 6  15.99343897229723  1.16366126812681  0.43452665796580
 6  17.42640211831183  0.38084330873087  0.02868599469947
 6  18.51599114651465  1.65541273247325 -0.28322846964696
 6  19.80906310741074  0.84825332013201 -0.82480256395640
 6  19.61786158745875  0.18312374267427 -2.36556234743474
 6  20.92337950685069  1.83418483648365 -0.62991808770877
 1 -3.24583522182218  3.72528377937794  0.84890429212921
 1 -10.15014899739974  3.87784686978698 -0.03611724562456
 1 -9.89104159575958 -2.41106150545055 -1.12103492939294
 1 -2.13661617841784 -0.83369098689869  1.79842989128913
 1 -1.85500483908391  1.63422389858986  0.01070752415242
 1 -0.97133851755176  1.11197951235123  2.81297200830083
 1 -2.02389056295630  2.68270684708471  2.84936105390539
 1 -2.95938827132713  1.08682656795680  3.44863073217322
 1 -2.22960198049805 -1.35885715871587 -0.94623241004100
 1 -1.55773094209421  0.40199872697270 -1.07013680448045
 1  0.13815181348135 -0.38593002630263  0.75868173337334
 1 -0.34408812861286 -2.42566890069007  0.63157338943894
 1 -4.50246477687769  6.63669149704971  0.31483644134413
 1 -5.99704998559856  6.95009768566857  1.36799370547055
 1 -4.57759878807881  5.11729069006901  1.87472524482448
 1 -9.43126614071407  5.82147725692569 -0.12636901270127
 1 -11.99758931253125 -1.73283415091509 -0.88566299349935
 1 -13.26345256025603 -0.77526112631263 -0.57963559996000
 1 -13.27853567666767 -1.54319643504351 -3.12827994509451
 1 -12.33379034283428  0.00899832133213 -3.39793196269627
 1 -11.39385621002100 -1.41741505850585 -2.73290989838984
 1 -8.81903108640864 -4.91301785738574 -1.40545277327733
 1 -7.44572978757876 -5.62396240884089 -0.67096674857486
 1 -8.87626490649065 -5.19530149134913  0.45218982848285
 1 -2.99649923132313 -3.84047777267727 -0.37687599439944
 1  3.41324293969397 -3.13488076187619 -1.61693741084108
 1  2.83391768056806 -1.91655757075708 -2.36287652295230
 1  4.28117544524452 -0.71017376577658 -0.10741714011401
 1  4.89271232823282 -0.73638711121112 -4.12725284028403
 1  6.57882146054606 -1.33632230763076 -3.41950317421742
 1  5.13147697509751 -2.53136575087509 -3.40025420922092
 1  6.71885230713071  0.67865320272027 -1.83827644484448
 1  5.90783589298930  0.92623817161716 -0.46699096249625
 1  7.03097427632763 -1.27190538763876  0.05982770437044
 1  7.71557695609561 -1.27122591289129 -1.26348582448245
 1  8.64852698409841  0.94739533433343 -1.06117890319032
 1  8.14768326642664  1.21876706490649  0.70168587698770
 1  9.85605805290529 -1.14905234893489 -0.40157731533153
 1  8.49770201450145 -1.78548736443644  1.72688104890489
 1  10.32318838823882 -1.49947382858286  1.84358625002500
 1  9.34626783838384 -0.21428265066507  2.56639794489449
 1  10.73188682648265  1.09461222112211 -0.87670484208421
 1  10.62823256985698  1.69470834643464  1.25842972327233
 1  12.19294683688369 -0.75839827932793  2.06237992129213
 1  12.25861801580158 -0.91628984958496 -0.18608160566057
 1  13.55567043704371  1.25795534053405 -0.57172607720772
 1  13.24567661246125  1.49028327962796  1.37564335373537
 1  14.87685911171117 -0.50441795779578  0.01551336013601
 1  14.82987288718872  0.32421281678168  2.90167294029403
 1  14.56820409390939 -1.53625129702970  1.84956245434543
 1  16.49224625772577 -0.74848843194319  2.22902938063806
 1  15.47109824472447  1.84226421982198 -0.47210718541854
 1  16.07370140274027  1.76163569906991  1.53352167536754
 1  17.73435475057506 -0.36265309470947  0.96310649734973
 1  17.28393591779178 -0.25186701750175 -0.71064244164416
 1  18.11500650775078  2.36173272107211 -0.98703169146915
 1  18.88986898299830  2.21041494839484  0.63426009650965
 1  19.75214777597760 -0.06895404920492 -0.03287993719372
 1  19.54564288228823  1.11288633823382 -2.81772389758976
 1  20.63895818581858 -0.23132493429343 -2.61881601500150
 1  19.02740546754675 -0.70817853625363 -2.27268534323432
 1  21.01412819141914  2.10200978007801  0.48289904350435
 1  22.01729947024703  1.23090967366737 -0.78348106310631
 1  20.77426407930793  2.56010349754975 -1.47446224252425
 1 -0.19719534463446 -4.02533528292829  2.64307265526553
 1 -1.85729541054105 -4.16195346904690  3.60420105670567
 1 -0.63755776907691 -2.46969544664466  3.16587074027403
 8 -11.95686406070607  3.47281208040804 -0.69533134683468
 1 -12.82772328382838  1.80840208030803 -1.45737634263426

