%nproc=4
%Mem=4GB
# td=(NStates=1) iop(3/107=0140000000,3/108=0140000000) iop(3/107=0140000000,3/108=0140000000) CAM-B3LYP/6-31G(d,p) 

TD

0 1
12 -5.56633814041404  1.28697357165717  0.16679528472847
 6 -4.91706209340934 -2.02063052635264 -0.38009487628763
 6 -3.44388317741774  1.16342662746275  2.85616098939894
 6 -6.22750154585458  4.56665993019302  0.59519972877288
 6 -7.88825459255926  1.19883073377338 -2.37793546704670
 7 -4.31707596089609 -0.21524971677168  0.97846918571857
 6 -4.19071259875988 -1.56727042864286  0.69398174777478
 6 -3.13149627412741 -2.33007631043104  1.49928429212921
 6 -2.81344451545155 -1.28012090299030  2.63506006210621
 6 -3.61895932333233 -0.03550617831783  2.12527711291129
 6 -3.39877291669167 -1.74348779017902  3.92722542194219
 6 -1.89868506170617 -2.72149955925593  0.74356966246625
 6 -0.95179682318232 -3.63237081768177  1.50564415241524
 6  0.34673977447745 -3.91893573427343  0.68194638933893
 8  0.47506757105711 -3.44282159575958 -0.40343657785779
 8  1.11293813951395 -4.83344296159616  1.30985559285929
 7 -4.94008482478248  2.66092546944694  1.42915314701470
 6 -4.00630272007201  2.44395181688169  2.53402400570057
 6 -3.79999950365037  3.64984348654865  3.21356191239124
 6 -4.51540209290929  4.64083561186119  2.53344261556156
 6 -5.31798790299030  3.91221931713171  1.42748884118412
 6 -2.97470283338334  3.83965134093409  4.45213940334033
 6 -4.69715624622462  5.94697211771177  3.03806331113111
 8 -4.10514056205621  6.55403329132913  3.90772467236724
 7 -6.85557935783578  2.59677957375738 -0.68259991629163
 6 -6.91668438323832  3.95907552475248 -0.39665135383538
 6 -7.96903208960896  4.55271199599960 -1.20914502400240
 6 -8.35350480378038  3.72303923382338 -2.17748669306931
 6 -7.71762065256526  2.45704171297130 -1.83312925942594
 6 -8.31870486138614  6.03413332273227 -1.10562007080708
 6 -9.40207457075708  3.88103850205021 -3.31914654745475
 6 -8.77102855655566  4.13391153735374 -4.62451885588559
 7 -6.41667008600860 -0.10122514021402 -1.14688978097810
 6 -7.41804133373337 -0.12036810541054 -2.06749095979598
 6 -7.53630113731373 -1.33326503010301 -2.76448897149715
 6 -6.60034958375838 -2.11536110791079 -2.08853501920192
 6 -5.98570698609861 -1.29644320942094 -1.09206533693369
 6 -8.59995545334533 -1.61987211321132 -3.86849374557456
 6 -6.12063573067307 -3.51094667856786 -2.09362291739174
 8 -6.40575497099710 -4.48648634703470 -2.70464672977298
 6 -4.99400796289629 -3.52337038963896 -0.86353867366737
 6 -5.21523900130013 -4.69423486458646  0.15736940874087
 8 -5.52351812341234 -4.44084309240924  1.25794215761576
 8 -5.07501719991999 -5.87542873927393 -0.36442958755876
 6 -5.25887345154515 -6.98477033033303  0.47211904170417
 6  2.32244321752175 -5.14739585978598  0.67563151755176
 6  3.33743827882788 -4.16011617251725  0.99836773657366
 6  4.00279967016702 -3.30060293039304  0.25732936793679
 6  3.77590192909291 -3.24750969226923 -1.29553905840584
 6  5.08434486028603 -2.39943499109911  0.75623942274227
 6  6.50298516981698 -2.63007593279328  0.13345481288129
 6  7.66524184778478 -1.85078443394339  0.65362105260526
 6  8.93952477377738 -1.97491232483248 -0.11110889338934
 6  9.50257663936394 -3.36381702210221  0.20319686198620
 6  10.01047162626263 -0.91379161656166  0.43447596309631
 6  11.36441374377438 -0.89270887778778 -0.25972473867387
 6  12.34403209180918  0.17020164766477  0.21491833943394
 6  13.53043549934993  0.36105097499750 -0.57196195939594
 6  14.43554185318532 -0.89412881548155 -0.48192234313431
 6  14.18182412201220  1.73647981958196 -0.24209346414641
 6  15.43775796619662  2.15893392159216 -1.04329932493249
 6  15.92726531093109  3.57565231803180 -0.65942655585559
 6  17.22902815191519  3.93022086368637 -1.38432236743674
 6  16.89720230993099  4.06569146084608 -2.89177140134013
 6  17.70011941804180  5.22985825112511 -0.85572503140314
 1 -2.67157288008801  0.96314058945895  3.64557502590259
 1 -6.30241822062206  5.51678705910591  0.75256424812481
 1 -8.63985439263926  1.34818512141214 -3.19232471127113
 1 -3.28001906670667 -3.15847116251625  2.02605066586659
 1 -1.87455457935794 -0.82373003460346  2.64249552565257
 1 -2.90083986308631 -2.69564272547255  4.12766631063106
 1 -3.35250604330433 -0.97113701810181  4.66480851065107
 1 -4.44238675037504 -2.12928200910091  3.69115306580658
 1 -2.08233354705471 -3.09502902020202 -0.23705432923292
 1 -1.29815764816482 -1.80314943124312  0.37161528312831
 1 -0.79133456695670 -3.07804910051005  2.50513473217322
 1 -1.55548026962696 -4.68893602480248  1.53110490849085
 1 -1.90386049984998  3.64758428282828  4.05610151985199
 1 -2.96514750485048  4.86016322232223  4.94597085478548
 1 -3.12243523852385  3.03418441594159  5.17840284628463
 1 -5.37596065996600  6.70861505590559  2.41535685708571
 1 -9.91373050655065  2.91739239633963 -3.34106735843584
 1 -10.02617341524152  4.63531737583758 -2.84981527222722
 1 -9.48488828862886  4.17805621962196 -5.39795499779978
 1 -8.11688119751975  5.18346809220922 -4.76698665366537
 1 -8.00592044104410  3.41423078187819 -4.84920484528453
 1 -8.42721031063106 -0.82472301520152 -4.56640763906391
 1 -8.42687367036704 -2.48412181728173 -4.36436907390739
 1 -9.63004308380838 -1.61889871327133 -3.41199810651065
 1 -4.17025438283828 -3.85058988558856 -1.36130941784178
 1  2.69395052805281 -6.11623956695670  1.05340129702970
 1  2.09920066346635 -5.19769674577458 -0.48868231783178
 1  3.53545566786679 -4.21524080588059  2.00289529712971
 1  2.76461144784478 -3.61571719281928 -1.66437897889789
 1  3.92985759905991 -2.33393695299530 -1.59129159965997
 1  4.57498967296730 -4.04674840404040 -1.75287421332133
 1  4.93591363226323 -1.31517794179418  0.85164704820482
 1  5.12994152145215 -2.68015964836484  1.86900178047805
 1  6.85521304800480 -3.72448564066407  0.17796568056806
 1  6.45911607200720 -2.52868047704770 -1.18145874137414
 1  7.40180911221122 -0.65869919501950  0.67982522802280
 1  7.63441554445445 -2.09114569766977  1.71641602690269
 1  8.86862097139714 -1.73535181038104 -1.29549288738874
 1  8.71665618431843 -4.25860463186319 -0.20068386078608
 1  10.36772611341134 -3.80712491459146 -0.32541265476548
 1  9.77384644604460 -3.80800189168917  1.13287373007301
 1  9.45357450805080  0.04956068226823  0.67413277707771
 1  10.20597069456946 -1.21446798069807  1.50974051405141
 1  11.87955309660966 -1.74102413431343 -0.09580395359536
 1  11.27977406410641 -0.62278518341834 -1.34870620422042
 1  11.63946497999800  0.99822425162516  0.21357180198020
 1  12.59217404070407 -0.02975178377838  1.33571185138514
 1  13.19762656335634  0.63881831413141 -1.38726096479648
 1  14.58593793209321 -1.09364757745775  0.63843952395240
 1  13.95464103510351 -1.57442645894589 -1.11601792329233
 1  15.35484647304730 -0.72573577177718 -1.26345323782378
 1  13.40289848404841  2.22970758985899 -0.47908969666967
 1  14.62889959025903  1.86960724992499  0.84088130203020
 1  16.21581323712371  1.31213982668267 -0.92634912561256
 1  15.16257184058406  1.99066297909791 -2.04567594729473
 1  15.17282868746875  4.23176855485549 -0.94504650275028
 1  15.97698046814681  3.59862650405041  0.51354125452545
 1  17.88927260866087  3.10636212741274 -1.10349942954295
 1  15.85555627602760  4.53460998989899 -3.08215057485749
 1  17.80789671317132  4.38554806810681 -3.44499910501050
 1  16.46945714591459  2.92631370137014 -3.27482551715172
 1  17.92861890909091  5.11170238773877  0.12586425062506
 1  18.57922544484449  5.70470462266227 -1.38541545594559
 1  16.93712526342634  6.14973447654765 -0.84784884618462
 1 -5.27443274467447 -7.73465289838984 -0.31610514821482
 1 -6.20812524282428 -6.99014610121012  0.89408291579158
 1 -4.68116628522852 -7.02064363996400  1.48418287488749
 8 -7.92588017961796  6.87259376017602 -0.28598638263826
 1 -9.12189048614862  6.60279592449245 -1.83840952375238

