%nproc=4
%Mem=4GB
# td=(NStates=1) iop(3/107=0140000000,3/108=0140000000) iop(3/107=0140000000,3/108=0140000000) CAM-B3LYP/6-31G(d,p) 

TD

0 1
12 -5.74162566916692  1.18767364166417  0.22177078227823
 6 -5.04374476167617 -2.06993545684568 -0.38269513631363
 6 -3.46122491159116  1.11015129992999  2.82683805710571
 6 -6.13102189788979  4.52914617881788  0.73488369716972
 6 -7.95797156425643  1.20120097079708 -2.43989166266627
 7 -4.37244149744974 -0.31676986878688  0.99934127292729
 6 -4.31288481598160 -1.64062776437644  0.63033538313831
 6 -3.19223234773477 -2.39601290409041  1.45051941564156
 6 -2.90932410341034 -1.41887477837784  2.52837939403940
 6 -3.53031045844584 -0.05627825552555  2.09243382858286
 6 -3.53498653805381 -1.83182662406241  3.80407310671067
 6 -1.98129332253225 -2.83485089438944  0.53077838333833
 6 -1.01266290979098 -3.62631021162116  1.37542113011301
 6  0.26316141664166 -3.92102594329433  0.57385558025803
 8  0.57276734103410 -3.56512382598260 -0.52511874607461
 8  1.09271611731173 -4.74440405770577  1.33219782708271
 7 -4.92013282958296  2.62322169906991  1.51865209690969
 6 -4.07216930673067  2.35341276297630  2.50337094039404
 6 -3.85791529522952  3.52038054025403  3.25520607680768
 6 -4.55276582928293  4.55075660396040  2.63071234253425
 6 -5.17692379657966  3.91188928412841  1.54523061536154
 6 -2.76697206030603  3.66948432423242  4.41536572597260
 6 -4.53296982758276  6.03639105960596  2.83173267806781
 8 -3.86727677567757  6.53652154015402  3.75878977887789
 7 -6.94098789868987  2.62324222002200 -0.63975563186319
 6 -6.98033074787479  3.91795141234123 -0.20539222792279
 6 -7.92947813421342  4.59581630643064 -1.16206031553155
 6 -8.30306976027603  3.73336026592659 -2.10441938633863
 6 -7.77342623312331  2.45314132293229 -1.71618756525653
 6 -8.15265825672567  5.98685859525953 -1.14207371617162
 6 -9.25700006330633  3.77263766196620 -3.19179381218122
 6 -8.64117557125713  4.18218636483648 -4.53138954295430
 7 -6.39587800680068 -0.09770478817882 -1.08810390239024
 6 -7.40782031163116 -0.01111718031803 -2.16603081378138
 6 -7.51324883208321 -1.32344404800480 -2.78960148274827
 6 -6.65903545234523 -2.19420899269927 -2.16328249394939
 6 -6.01387980338034 -1.43132669776978 -1.17270340074007
 6 -8.42265772357236 -1.60801092709271 -3.84631152735274
 6 -6.21427509460946 -3.55472105600560 -2.05394894999500
 8 -6.59469386488649 -4.52599029742974 -2.64129039413941
 6 -5.04573313541354 -3.54090214281428 -0.93504582438244
 6 -5.37226470387039 -4.59744518561856  0.16236990879088
 8 -5.93091886348635 -4.38303731183118  1.28289465286529
 8 -5.07366706490649 -5.83095429182918 -0.23347649224922
 6 -5.33143070727073 -6.93528538183818  0.66262809260926
 6  2.42390336353635 -5.12702382258226  0.67419137353735
 6  3.37062159715972 -4.09257941884188  1.03316121592159
 6  3.98902829302930 -3.30168303840384  0.12655629062906
 6  3.75538987788779 -3.27099204050405 -1.28482798729873
 6  5.02882930873087 -2.20501554915492  0.65653945274527
 6  6.45614048534854 -2.62745567076708  0.08023949134913
 6  7.56221154475448 -1.62371172667267  0.60143583408341
 6  8.88549937123712 -1.84125895949595  0.00658287578758
 6  9.48505488718872 -3.24771541194119  0.28951549384939
 6  9.94944552365236 -0.74627486488649  0.38903141864186
 6  11.26203350575057 -0.78472807970797 -0.28746751295130
 6  12.14586227482748  0.51178580608061  0.18491533913391
 6  13.42605506130613  0.60100497039704 -0.56465122832283
 6  14.40298859785979 -0.60699010161016 -0.33378752965297
 6  14.08980492009201  1.93242941454145 -0.26764601940194
 6  15.48210240064006  2.13639166736674 -0.97066206120612
 6  16.15706829122912  3.46372112491249 -0.70859147234723
 6  17.43875912501250  3.75452329392939 -1.37659159435944
 6  17.31936452615262  3.77251214291429 -2.82988521272127
 6  18.03986339243924  5.11821708700870 -0.87201666056606
 1 -2.62946866966697  1.08401267666767  3.49077954635464
 1 -6.37475545434543  5.57095247564756  0.87449644134413
 1 -8.65493590079008  1.15457576047605 -3.37600307910791
 1 -3.60164122892289 -3.37408272367237  1.84003206400640
 1 -1.74514163806381 -1.36354401600160  2.70753202930293
 1 -3.02105188428843 -2.58127128832883  4.12001554555456
 1 -3.44737553025303 -1.28050795519552  4.64241627142714
 1 -4.57698020972097 -2.01420050095009  3.94135808630863
 1 -2.31885719941994 -3.38498801610161 -0.21949257305731
 1 -1.54539237163716 -1.92032114841484  0.31774989658966
 1 -0.74877031053105 -3.23477477307731  2.40398461716172
 1 -1.34040876247625 -4.60660779197920  1.32146394439444
 1 -1.93560367416742  3.40624014841484  3.79915582528253
 1 -2.99983097319732  4.75468267426743  4.93800005770577
 1 -2.92260525552555  2.88750974847485  5.16588159415942
 1 -5.27555061896190  6.64514870927093  2.12629795119512
 1 -9.85435456895689  2.73431408850885 -3.28859211091109
 1 -10.27064786268627  4.42401624572457 -2.95110540124012
 1 -9.25579537933793  4.35444385838584 -5.35413061536154
 1 -8.17268677807781  5.09727947334734 -4.32308226322632
 1 -7.92813266226623  3.38698805760576 -4.97254717951795
 1 -8.43926151575158 -1.02643318621862 -4.79941093939394
 1 -8.01890287328733 -2.47600100520052 -4.09977261426143
 1 -9.59801988148815 -1.58434525792579 -3.48965587228723
 1 -4.17430478787879 -3.62712753935394 -1.50355364226423
 1  2.71624275727573 -6.16156409940994  1.25018097499750
 1  2.41678242164216 -5.33843081918192 -0.39668311791179
 1  3.90758288058806 -4.12745202700270  2.01685669326933
 1  2.82834782148215 -3.33582920402040 -1.61879442044204
 1  3.73482809610961 -2.21964552385239 -1.69523199369937
 1  4.45081725572557 -3.93395712491249 -1.84367329322932
 1  4.77451749264926 -1.22761918591859  0.11070295379538
 1  5.15561408870887 -2.34213584598460  1.63303818411841
 1  6.68097562426243 -3.62053524562456  0.40290817481748
 1  6.53152331273127 -2.45027263626363 -0.95959655515552
 1  7.27002593389339 -0.56980030513051  0.36809405490549
 1  7.72759486238624 -1.71082766586659  1.75504989028903
 1  8.83849795909591 -1.87307558275828 -1.13773711181118
 1  8.95852037073707 -4.20633940534053  0.09611581918192
 1  10.57551689248925 -3.46154035613561 -0.13569368286829
 1  9.62723178457846 -3.33319441094109  1.42782322502250
 1  9.40382953355336  0.09164489068907  0.20593595739574
 1  10.05276537403740 -0.76230276417642  1.51145068506851
 1  11.85652079337934 -1.68318835073507  0.05764139093909
 1  11.29758584528453 -0.92752565746575 -1.44913624722472
 1  11.43784481798180  1.33127755695570 -0.23334288948895
 1  12.34111893519352  0.48707989938994  1.09047732793279
 1  13.12438923962396  0.42516694899490 -1.70594283298330
 1  14.66388572687269 -0.42643085578558  0.73500918091809
 1  13.98186375737574 -1.68699771607161 -0.67252357385739
 1  15.50852184058406 -0.51066426462646 -0.65575246774678
 1  13.47877607180718  2.78997361646165 -0.70264205190519
 1  14.33547024732473  2.24865515471547  0.86999421332133
 1  16.17603925972597  1.37062567526753 -0.73624011471147
 1  15.43294887828783  1.79906381918192 -2.12089346904690
 1  15.43805521012101  4.22159753775377 -0.92797479557956
 1  16.32418518861886  3.66522316371637  0.37157705810581
 1  18.15670935233523  3.02816430763076 -1.10590967056706
 1  16.46410713111311  4.54774130303030 -3.28410076987699
 1  18.10693661716172  3.96297581088109 -3.20618522362236
 1  16.92774297449745  2.80390146014601 -3.53624165876588
 1  18.53517956515651  5.01180239773977  0.14610627482748
 1  19.12306982928293  5.27207135933593 -1.45128204260426
 1  17.48795034593459  6.06926642974297 -0.97481154245425
 1 -5.18157345874588 -7.67104653775378  0.15079154145414
 1 -6.23470790109011 -6.75207229382938  1.34556806430643
 1 -4.59416758535854 -7.14875645124513  1.50036449304930
 8 -7.86149374097410  6.85228172897290 -0.33511129512951
 1 -8.66806510361036  6.40565621052105 -2.14285996879688

