%nproc=4
%Mem=2GB
# td=(NStates=1) iop(3/107=0140000000,3/108=0140000000) iop(3/107=0140000000,3/108=0140000000) CAM-B3LYP/6-31G(d,p) 

TD

0 1
12 -6.71880445254526  0.58868801290129 -0.05450783128313
 6 -4.53302040854085 -1.99678810061006  0.23695397239724
 6 -4.22057387278728  2.67770940404040  1.08793167476748
 6 -8.92387509220922  3.25665969006901 -0.11933143484348
 6 -9.27286538413841 -1.72748577817782 -0.83032309100910
 7 -4.80523559545955  0.42217161486149  0.58574760686069
 6 -3.92770003560356 -0.70873057985799  0.53676423182318
 6 -2.57534095269527 -0.61986374557456  1.05872793509351
 6 -2.51633159895990  0.98713886268627  1.29780194269427
 6 -3.87403366626663  1.40690077527753  0.92295707040704
 6 -2.21183746944694  1.20136193209321  2.74359892269227
 6 -1.45499424782478 -1.05205776917692  0.02964429072907
 6 -0.15477359565957 -1.23248495509551  0.51068014151415
 6  0.89133021222122 -1.52636987388739 -0.51856002980298
 8  0.96988705680568 -1.17718033053305 -1.73038402860286
 8  2.05209549614962 -2.29560985958596 -0.10505542804280
 7 -6.49532127432743  2.54883525352535  0.26236998489849
 6 -5.44557511841184  3.32570121332133  0.59508580478048
 6 -5.63652786798680  4.82470215501550  0.64144901350135
 6 -6.96704741814181  4.94271036153615  0.22188877217722
 6 -7.65658736263626  3.58144695309531  0.06769160056006
 6 -4.70195511581158  5.80648807930793  0.81268893689369
 6 -7.91199276057606  6.17863478357836  0.04029355305531
 8 -7.40680459665967  7.37396901350135  0.11773963076308
 7 -8.72769632313231  0.74131499069907 -0.33655630473047
 6 -9.44643831623162  1.95315005030503 -0.29354040634063
 6 -10.84637126742674  1.61061093219322 -0.66382216341634
 6 -11.02276663416342  0.20144104850485 -0.72317317281728
 6 -9.75588725202520 -0.36287445064506 -0.58473054975498
 6 -11.96320309560956  2.54766095919592 -0.82117676847685
 6 -12.32102522302230 -0.59435299759976 -1.11181931563156
 6 -12.42855971807181 -0.72968513371337 -2.75581837653765
 7 -6.95113159605961 -1.30387294859486 -0.22541518601860
 6 -7.85771843344334 -2.23117311401140 -0.65083828182818
 6 -7.60313789888989 -3.55834315671567 -0.59064007410741
 6 -6.34466008720872 -3.53642280318032 -0.13632189278928
 6 -5.89853614231423 -2.12409122362236 -0.12914673037304
 6 -8.29938846234623 -4.71257863566357 -0.94695751165117
 6 -5.15891209570957 -4.42980877897790 -0.08433040734073
 8 -5.07712946164616 -5.56091662996300 -0.14953444684468
 6 -3.96326005140514 -3.45892645184518  0.41526617381738
 6 -3.48317182808281 -3.64860103560356  1.95501521452145
 8 -4.32457769786979 -3.96124285908591  2.90067873767377
 8 -2.18426010091009 -3.76067237253725  1.89530947014701
 6 -1.59440796289629 -4.19409449954995  3.15281970717072
 6  3.16055794859486 -2.43465864276428 -0.88313955805581
 6  4.19535330273027 -1.26087308840884 -0.69095462776278
 6  5.04414516991699 -0.99094596599660 -1.67458365996600
 6  5.29880386418642 -1.70714384908491 -3.03656063826383
 6  6.14833865846585 -0.12883053595360 -1.25713227172717
 6  7.45875456945695 -0.87396317841784 -0.92749948724872
 6  8.57845040534053  0.16748238283828 -0.63013149364937
 6  9.91288437783778 -0.60173709400940 -0.01903020872087
 6  9.76033354965496 -1.25853466816682  1.45427979677968
 6  10.94034636463646  0.58628348254826  0.11663650205021
 6  12.33067833833383 -0.08624731753175  0.50228854005401
 6  13.43805534813481  1.17635491019102  0.37161005940594
 6  14.74982131733173  0.46683996209621  0.42210687278728
 6  14.96984197229723 -0.33421570207021  1.79346927092709
 6  15.85024465286529  1.46103100510051  0.05440864616462
 6  17.18892837093710  0.97343256765677 -0.11439831373137
 6  18.32862240964096  2.02468966016602 -0.29026917371737
 6  19.70854305540554  1.32153064786479 -0.66025610931093
 6  19.73208300960096  0.69177460776078 -1.95254104530453
 6  20.92532970187019  2.38519993799380 -0.47055215111511
 1 -3.62504314261426  3.51607285828583  1.49838924062406
 1 -9.79864384688469  4.09736882198220 -0.13904753865387
 1 -10.11791428302830 -2.03430382968297 -1.33262608850885
 1 -2.19726224302430 -1.18205582338234  2.03308335663566
 1 -1.70260959955996  1.62522299849985  0.63471992539254
 1 -1.23765514921492  0.87922623702370  2.95563627472747
 1 -2.21407958185819  2.25930450685068  2.74094021182118
 1 -2.89018135063506  0.92709059435944  3.40745661476148
 1 -1.80199922022202 -1.82543381638164 -0.62022980978098
 1 -1.64497966696670 -0.34809628252825 -0.75201499229923
 1  0.49466746504650 -0.32661409470947  0.95828169336934
 1 -0.09782350215021 -1.89746608040804  1.32205243734373
 1 -3.80471500190019  5.58303613151315  0.10442540024002
 1 -5.13379365996600  6.63806648254825  0.56247315341534
 1 -4.38438946714671  5.83517247824783  2.08159593189319
 1 -9.02019503360336  5.97269237843784 -0.34325070087009
 1 -12.25526508010801 -1.69444031153115 -0.64967939513951
 1 -13.47426364136414  0.00383678347835 -1.21897953435343
 1 -13.19865768886889 -1.65498761416142 -2.87930504760476
 1 -12.67921488528853  0.14024144564456 -3.17135930543054
 1 -11.43793061746175 -0.95599891689169 -3.15154176157616
 1 -8.08330751405141 -4.99577613321332 -2.22505473347335
 1 -8.16321153575358 -5.87952796539654 -0.52309196109611
 1 -9.41788906890689 -4.51217317851785 -0.64962035253525
 1 -3.14478405980598 -3.63883760866087 -0.17809611641164
 1  3.38939055445545 -3.37834510831083 -0.52793851095110
 1  2.74890917971797 -2.55384129912991 -2.18985922122212
 1  4.25550287798780 -0.72388513691369  0.28002160376038
 1  4.42261531853185 -1.14482795529553 -3.88446856185619
 1  6.28168174657466 -1.63776245164516 -3.40344156805681
 1  4.72214604200420 -2.36978959325933 -3.00055423922392
 1  6.19774019591959  0.49334467186719 -2.10295291249125
 1  5.76215132453245  0.26406195399540 -0.43964822822282
 1  7.47079825872587 -1.38933713081308 -0.15187346574657
 1  7.44098949734973 -1.62125091539154 -1.86495597149715
 1  8.18770090149015  0.72956355115512 -1.57489027432743
 1  8.25085358345835  1.03296848504850  0.33243895229523
 1  10.41531397849785 -1.11677912161216 -0.85628278587859
 1  8.80677292159216 -1.69618843454345  1.59071743254326
 1  10.58484455385539 -2.08256213741374  1.51448333973397
 1  9.90483369496950 -0.33495471787179  2.51228253335333
 1  10.89197283508351  1.21185394529453 -0.58115528712871
 1  10.44450419701970  1.23452232783278  1.06159003930393
 1  12.34545208740874 -0.84933737323732  1.49806348964897
 1  12.67011916591659 -1.01748996959696 -0.66830982848285
 1  13.03775864586459  1.66422596759676 -0.59719862446245
 1  13.02972501730173  1.65794004530453  1.49481527092709
 1  15.01112253805380 -0.43639115511551 -0.25069326052605
 1  14.84638453835383  0.39794018951895  2.67021979497950
 1  14.48745601910191 -1.10061773367337  1.97512501060106
 1  15.90564759785978 -0.83279686278628  1.95468194589459
 1  15.45114624952495  2.22250224362436 -0.82306228092809
 1  15.67365139773977  2.20712024752475  1.13896221942194
 1  17.71006232133213  0.42615578617862  0.70316050275028
 1  17.12564008820882  0.42878104730473 -0.67654903230323
 1  17.94616962406241  2.28416496429643 -1.16410939923992
 1  18.21342133823383  2.57278118501850  0.66936360686069
 1  19.98753131433143  0.55946879307931  0.03252660346035
 1  19.43351166916691  1.37888293789379 -3.00744286948695
 1  20.60042433243324  0.18828702690269 -2.35362949634963
 1  18.85559828682868 -0.08479619801980 -1.93890196489649
 1  20.78723550215021  3.31327090619062  0.49745049864986
 1  21.96436417671767  2.07225380808081 -0.31214392939294
 1  20.78580523342334  3.10666815401540 -1.43426822312231
 1 -0.78640426552655 -4.02488523792379  2.71261960996100
 1 -1.82711239223922 -5.27953522722272  3.74310494709471
 1 -1.94072808610861 -3.71206968406841  3.83624777797780
 8 -11.65537391169117  3.75313011221122 -0.64459627332733
 1 -13.10107061856186  1.73857509760976 -0.98049865486549

