%nproc=4
%Mem=4GB
# td=(NStates=1) iop(3/107=0140000000,3/108=0140000000) iop(3/107=0140000000,3/108=0140000000) CAM-B3LYP/6-31G(d,p) 

TD

0 1
12 -5.58112961956196  1.29535440974097  0.16923552875288
 6 -5.09160954815481 -2.07584604790479 -0.28392525932593
 6 -3.33146193529353  1.16388667346735  2.76233160646065
 6 -6.19593838953895  4.56090935513551  0.63395360416042
 6 -7.99546531363136  1.13546439713971 -2.38098577207721
 7 -4.44078833213321 -0.29940813261326  0.99411074987499
 6 -4.29377290479048 -1.68327202880288  0.64919726932693
 6 -3.26613973847385 -2.32839614241424  1.51113547724773
 6 -3.02001517251725 -1.37684057495750  2.69769632573257
 6 -3.64963239063906 -0.12284491219122  2.14348893409341
 6 -3.91488452785278 -1.89282272367237  3.88611131053105
 6 -1.89570476367637 -2.54214162346235  0.64744004950495
 6 -0.99044068756876 -3.49693727432743  1.41548513651365
 6  0.29497459795980 -3.83257709840984  0.60234842954295
 8  0.48312837713771 -3.37644495809581 -0.53728996319632
 8  1.04992183788379 -4.64416403370337  1.26722132943294
 7 -4.80633144944494  2.66467584448445  1.39717994969497
 6 -3.87104919471947  2.37876529822982  2.35069567286729
 6 -3.74050355405541  3.66598510071007  3.22868342454245
 6 -4.59192974567457  4.60352188048805  2.68042731403140
 6 -5.35000110431043  3.90788888408841  1.52292838513851
 6 -2.90737610071007  3.80743811961196  4.37665185458546
 6 -4.56525305590559  5.98806622712271  2.93221272607261
 8 -4.15570561856186  6.50327821582158  3.90064396429643
 7 -6.80780458035804  2.60138003380338 -0.70457211351135
 6 -6.85934864966497  3.91410102730273 -0.38852054075408
 6 -7.83021820822082  4.60623734853485 -1.19924403390339
 6 -8.33363281658166  3.55913284318432 -2.11052999739974
 6 -7.69479837033703  2.40716672547255 -1.77403334983498
 6 -8.25962895379538  5.95724563396340 -1.12321182998300
 6 -9.26979134243424  3.82346274447445 -3.30772540534053
 6 -8.56091754545455  3.99467761396140 -4.60397680168017
 7 -6.33113153215321 -0.14885990369037 -1.13638873087309
 6 -7.30993052265227 -0.05685175377538 -2.11138534923492
 6 -7.51800930813081 -1.36502820642064 -2.69657217981798
 6 -6.70098964776478 -2.19750932273227 -2.03158932463246
 6 -5.99293770917092 -1.40351391649165 -1.05434156455646
 6 -8.51702716051605 -1.57929805580558 -3.66448334453445
 6 -6.19908357545755 -3.54919050295030 -2.03659721482148
 8 -6.58291268676868 -4.53346104450445 -2.56614287938794
 6 -4.94544310641064 -3.53935198779878 -0.90351267106711
 6 -5.20638811621162 -4.63128856995700  0.13072674447445
 8 -5.69615538713871 -4.45154416251625  1.21782814621462
 8 -5.09064876307631 -5.84056525292529 -0.35956910151015
 6 -5.53366093029303 -6.88727058035804  0.44254608440844
 6  2.32429340254025 -4.95130625082508  0.66460041444144
 6  3.47483201820182 -4.07774793569357  0.98085598539854
 6  4.03551294149415 -3.22814568466847  0.23447708270827
 6  3.72167650655066 -3.00587552885289 -1.22195169966997
 6  5.14879130493049 -2.41265631323132  0.70623442224222
 6  6.52107697899790 -2.68466139133913  0.02820428782878
 6  7.59870519411941 -1.86473582908291  0.56308199869987
 6  9.05089591089109 -2.06305113871387  0.00020223772377
 6  9.63969035073507 -3.40801144154415  0.12860940324032
 6  9.98234881398140 -0.97486772417242  0.48827134263426
 6  11.37857515991599 -0.88092769966997 -0.15172393859386
 6  12.32508019661966  0.24214884238424  0.26656350395040
 6  13.53443589938994  0.34145901580158 -0.60300506370637
 6  14.50198849784979 -0.78932833543354 -0.52101625252525
 6  14.30233617321732  1.60271644324432 -0.23200245504550
 6  15.47390158055805  2.12261028922892 -1.03119811481148
 6  16.05221780618062  3.45423017581758 -0.75006561976198
 6  17.16713196229623  3.99086692829283 -1.41336527172717
 6  17.05160775047505  4.32254714641464 -2.96070829502950
 6  17.66719612571257  5.16917218251825 -0.69871933083308
 1 -2.74006972977298  1.24643891929193  3.77406787518752
 1 -6.28887686648665  5.68893427382738  0.73771276297630
 1 -8.76435684288429  1.38000830373037 -3.17432291109111
 1 -3.58461952675267 -3.39519483488349  2.01458951975197
 1 -2.00652777667767 -1.21860952255226  3.14094537063706
 1 -3.44247402650265 -2.87099026022602  4.22432597659766
 1 -3.71178197089709 -1.16002590699070  4.69112114191419
 1 -5.06659917161716 -2.03157223812381  3.64080803130313
 1 -2.21297661136114 -2.88180769806981 -0.42993361716172
 1 -1.42460029242924 -1.61480059635964  0.54993311491149
 1 -0.63808924242424 -3.23064436003600  2.28586280498050
 1 -1.58504322592259 -4.36741387258726  1.62039383738374
 1 -1.65052516631663  3.25495501990199  4.52172808250825
 1 -2.86315730583058  4.86403360936094  4.59306556425642
 1 -3.68843183818382  3.30510150765077  5.30443544954495
 1 -5.06835989988999  6.56629082348235  2.14618994039404
 1 -9.89839897339734  3.04969562666267 -3.35837908960896
 1 -10.00287108500850  4.76549039313931 -3.11334162486249
 1 -9.06650645044505  4.25326374037404 -5.52986818911891
 1 -7.80805031443144  4.76080582598260 -4.40240019501950
 1 -7.77961781078108  3.22754211301130 -4.99428935373537
 1 -8.35552314191419 -0.77464800770077 -4.43712471077108
 1 -8.45410639363936 -2.49596300140014 -4.18429106610661
 1 -9.57668774827483 -1.68348517191719 -3.24531143784378
 1 -4.06017337473747 -3.68960378697870 -1.38925221212121
 1  2.46810794379438 -6.05950389338934  1.18395435233523
 1  2.09574031743174 -5.11442841894189 -0.48657210681068
 1  3.50924304660466 -3.74957423922392  2.09663467106711
 1  2.71917690439044 -3.43432905400540 -1.59658219921992
 1  3.44582919621962 -1.88551211051105 -1.32333480398040
 1  4.64987716171617 -3.24859858905891 -1.98909783568357
 1  4.85138517941794 -1.49191561556156  0.82796467996800
 1  5.30324885218522 -2.69026065846585  1.84004888518852
 1  6.91053858055806 -3.72926611871187  0.16368425242524
 1  6.36244640504050 -2.67337494649465 -1.12551314681468
 1  7.43535246654665 -0.75282860796080  0.21109835533553
 1  7.84545664856486 -1.91218780188019  1.68715310061006
 1  8.97489159845985 -1.62383065826583 -1.11539487758776
 1  9.01655617431743 -4.32128089948995 -0.32179597199720
 1  10.59970931173117 -3.56230043214321 -0.25719583308331
 1  9.91987104850485 -3.59969106060606  1.05596603930393
 1  9.56777592819282 -0.00913518731873  0.50801616541654
 1  10.23704380188019 -0.89822635653565  1.56449598959896
 1  12.00513565486549 -1.86021605350535 -0.17159153235324
 1  11.27903399009901 -0.82038494339434 -1.30687202080208
 1  11.74182521602160  1.21131556075608  0.26988743354335
 1  12.61214603790379  0.22315350675068  1.35156343654365
 1  13.01389819051905  0.28941337363736 -1.70663290199020
 1  14.54031336963696 -0.89293750645065  0.65677135713571
 1  13.97516308730873 -1.80737975427543 -0.80987730923092
 1  15.35781677007701 -0.59808300650065 -1.11062795529553
 1  13.58975716991699  2.54051867096710 -0.40795258295830
 1  14.59338603890389  1.70114040324032  0.77959517341734
 1  16.38165982178218  1.48027664036404 -0.82127861856186
 1  15.14863044644465  2.07954186698670 -2.21512289198920
 1  15.27582898749875  4.24202958095810 -0.87550954905491
 1  16.38456122622262  3.53446008740874  0.27151705210521
 1  18.15560924232423  3.27390888208821 -1.24650372997300
 1  16.43741446184618  5.02951948084809 -3.21901426122612
 1  17.95968189168917  4.68852836613661 -3.36885149024902
 1  16.76006620682068  3.45866693669367 -3.45369340394039
 1  17.96994304150415  5.19995121262126  0.44170583478348
 1  18.43372089438944  5.49767391959196 -1.55930284468447
 1  16.97205875677568  5.94851435453545 -0.65046910821082
 1 -5.26282158355836 -7.94341377447745 -0.08790232793279
 1 -6.60799522982298 -6.72330941754175  0.77200070757076
 1 -4.83976214481448 -6.85185676127613  1.48106256285629
 8 -7.82437002860286  6.82630913171317 -0.35581336533653
 1 -9.16850514761476  6.37635328022802 -1.67526320912091

