%nproc=4
%Mem=4GB
# td=(NStates=1) iop(3/107=0140000000,3/108=0140000000) iop(3/107=0140000000,3/108=0140000000) CAM-B3LYP/6-31G(d,p) 

TD

0 1
12 -5.61233273987399  1.16652152645265  0.23936254145415
 6 -4.96276666386639 -2.16781524482448 -0.35532239903990
 6 -3.39704849394940  1.06592687748775  2.81822719601960
 6 -6.15341413711371  4.45882914711471  0.69541975077508
 6 -7.96515228232823  1.16749760046005 -2.37586526002600
 7 -4.38504275757576 -0.34467265906591  1.10638197699770
 6 -4.24169769726973 -1.69692339393939  0.68427077667767
 6 -3.25470859535954 -2.42321562436244  1.43899826352635
 6 -2.92441561256126 -1.38691158205821  2.58690524662466
 6 -3.58953638103810 -0.08730135783578  2.16228081328133
 6 -3.51821486088609 -1.71874531593159  3.96028872827283
 6 -2.05558075127513 -2.76908431773177  0.63253855935594
 6 -1.03649529302930 -3.55268284888489  1.41182477047705
 6  0.18371347184718 -3.96403024372437  0.64510270497050
 8  0.52820288458846 -3.38914622822282 -0.51652788698870
 8  1.03023986968697 -4.85215483278328  1.21137574487449
 7 -4.88342915921592  2.52832220912091  1.49710994269427
 6 -3.99079116891689  2.44306172787279  2.44378498179818
 6 -3.71406090979098  3.67415591779178  3.14351490769077
 6 -4.48996954965497  4.59566109440944  2.60168944024402
 6 -5.19622572677268  3.96251434663466  1.56455254755476
 6 -2.63302866596660  3.86093346914691  4.37261145054505
 6 -4.56458298889889  6.07089450995099  2.89977948274827
 8 -3.91299134713471  6.75497338533853  3.75227912781278
 7 -6.79437323722372  2.56987688348835 -0.68395005130513
 6 -6.80091280608061  3.85816543374337 -0.38297998669867
 6 -7.80047523392339  4.60981770657066 -1.22871698119812
 6 -8.38837829112911  3.66193312321232 -2.10349929432943
 6 -7.73136202670267  2.35692170097010 -1.62484843134313
 6 -8.03799679057906  5.95563547294730 -1.31308081688169
 6 -9.41872623592359  3.89324972317232 -3.08567320012001
 6 -8.80832228592859  4.22657080328033 -4.41640804480448
 7 -6.28655707470747 -0.14165918361836 -1.12778787078708
 6 -7.30322985258526 -0.01098716731673 -2.08722293299330
 6 -7.51770927812781 -1.27727943154315 -2.66385890849085
 6 -6.64527407620762 -2.20183975577558 -2.04556072177218
 6 -5.92803121852185 -1.40131369646965 -1.13851998239824
 6 -8.40475593339334 -1.69562968896890 -3.83318021422142
 6 -6.21351501860186 -3.54964054795480 -1.98231178627863
 8 -6.65984037953795 -4.52810050845085 -2.63110937603760
 6 -5.03695225732573 -3.57269532213221 -0.97171949174917
 6 -5.33427090449045 -4.70279572067207  0.09766343814381
 8 -5.89258503010301 -4.58939794789479  1.17442380578058
 8 -4.90846054425443 -5.84877607400740 -0.34612775737574
 6 -5.26823438763876 -6.99281113441344  0.47902973277328
 6  2.28889986318632 -5.06910803100310  0.54609856425643
 6  3.32585712071207 -4.08703886478648  0.91035893569357
 6  3.90063945414541 -3.14792766286629  0.03838747374737
 6  3.61640597949795 -2.89848478977898 -1.39143864836484
 6  5.14484090989099 -2.42369741734173  0.55280907970797
 6  6.48694356565657 -2.68261118631863  0.03287475487549
 6  7.50355567916792 -1.83634298979898  0.48642433293329
 6  8.93829465076508 -1.96130096369637 -0.03652143464346
 6  9.55583196489649 -3.37354799519952  0.48146468876888
 6  9.92578315741574 -0.90508074547455  0.48786130163016
 6  11.20671797419742 -0.77465707260726 -0.24162292849285
 6  12.14772246084608  0.41846647414741  0.30635748334834
 6  13.38456091189119  0.58571344124412 -0.48708347154715
 6  14.31642994199420 -0.64801420402040 -0.24240839173917
 6  14.02968890849085  1.87316348794880 -0.22490174497450
 6  15.34230842124212  2.10769879807981 -0.89809480448045
 6  16.01319390379038  3.48325307810781 -0.67468808200820
 6  17.34100935003501  3.79631747334733 -1.43785772097210
 6  17.01549413911391  3.97649254095410 -2.99515173937394
 6  17.93437284338434  5.25061032633263 -0.93736319521952
 1 -2.75915163796380  1.08447272267227  3.80104057245725
 1 -6.41961994079408  5.55799117951795  0.97887687938794
 1 -8.81276168336834  1.18760906380638 -3.08916439523952
 1 -3.56692775757576 -3.17047236263626  2.19259732053205
 1 -1.84708183208321 -1.33878153975398  2.75236651275127
 1 -3.18704848394840 -2.59781294249425  4.23715725972597
 1 -3.30303109580958 -0.90409031343134  4.85775780558056
 1 -4.56272878457846 -1.82441152205221  3.76157010751075
 1 -2.29337465116512 -3.38954847214721 -0.21520214401440
 1 -1.59892772517252 -1.84636375267527  0.26739486108611
 1 -0.76094152765277 -2.95953724932493  2.17655187388739
 1 -1.39180390199020 -4.49801693289329  1.61489328732873
 1 -1.57683779757976  3.78076760116012  4.04017992769277
 1 -3.02711370147015  4.62848005400540  4.82695895359536
 1 -2.80066306130613  3.07126812431243  5.19582458845885
 1 -5.29845290919092  6.77252144654465  2.23516883828383
 1 -10.14405353885388  3.03199385648565 -3.27828107980798
 1 -9.99806060396040  4.80775461956196 -2.71217150785079
 1 -9.47112691249125  4.31282969696970 -5.25234043634363
 1 -8.36627613701370  5.36722646804680 -4.32972292729273
 1 -8.19983983298330  3.43385274407441 -4.55431535633563
 1 -8.34624221382138 -1.21201174407441 -4.71076207450745
 1 -8.22456343934394 -2.70298370347035 -4.06047868486849
 1 -9.53716379587959 -1.33744056745675 -3.61640854755476
 1 -4.07981533893389 -4.00093492009201 -1.38474176107611
 1  2.55982711571157 -6.02004994799480  0.84806076297630
 1  2.10751149454946 -4.98911588768877 -0.35981943154315
 1  3.85817794009401 -4.17828711051105  1.90723573117312
 1  2.63257824452445 -3.33977959905991 -1.72142468346835
 1  3.53995860916092 -1.72449600890089 -1.68434090459046
 1  4.36994916891689 -3.51366509570957 -1.99427835373537
 1  4.83574361526153 -1.32565898989899  0.37668955245524
 1  5.08731725902590 -2.66294792719272  1.79346422672267
 1  6.90578810551055 -3.75506869896990  0.30852873687369
 1  6.38093825422542 -2.81312892189219 -1.05181577707771
 1  7.20462939423942 -0.60821414651465  0.47888513401340
 1  7.56458856175618 -1.97847443054305  1.74964935023502
 1  8.85197930723072 -1.92664093929393 -1.21167450555056
 1  8.97898241694169 -4.12696146754675  0.00546675427543
 1  10.65197453825383 -3.52341654375438  0.01008089458946
 1  9.73028208960896 -3.45961705320532  1.61464190689069
 1  9.35484463506351 -0.00950522432243  0.55641100490049
 1  10.31145124262426 -1.20322685658566  1.52234177417742
 1  11.82143728502850 -1.63006303820382 -0.04418879207921
 1  11.04237032373237 -0.66803970887089 -1.28383971757176
 1  11.51251228472847  1.35521995119512  0.16673711851185
 1  12.45399022232223  0.08613980538054  1.28622690289029
 1  12.83721052175217  0.55935036733673 -1.53935617431743
 1  14.63644298259826 -0.79726793949395  0.70494617461746
 1  13.67296286728673 -1.67593660996100 -0.50288661016102
 1  15.28657964636464 -0.63453665186519 -0.65983287578758
 1  13.33517171137114  2.71076569566957 -0.60592237993799
 1  14.17575427572757  1.93187347654765  0.84955216911691
 1  16.15625728152815  1.46719533223322 -0.51368785948595
 1  15.39299488288829  1.78645255805581 -1.91605298499850
 1  15.42079348394840  4.22674805280528 -0.68582058015802
 1  16.16129889999000  3.42047868926893  0.60827072747275
 1  18.21040472187219  3.23601509270927 -1.13273235283528
 1  16.19873059345935  4.76987351625163 -3.18372073187319
 1  17.99145506900690  4.19491900520052 -3.43659826492649
 1  16.40294049424943  3.22088315831583 -3.46396443104310
 1  18.31839788698870  5.12062327982798  0.09871153535354
 1  18.73487100940094  5.54822897509751 -1.45958287268727
 1  17.19150070097010  6.02335183828383 -0.95762982428243
 1 -5.13234853625362 -7.85628506160616 -0.13484702240224
 1 -6.41889631993199 -6.91745883248325  0.85951945944594
 1 -4.61918008660866 -6.77962953855386  1.53421787838784
 8 -7.56951454305431  6.90020652145215 -0.51033881788179
 1 -8.80393869096910  6.38457410231023 -2.02718840164016

