%nproc=4
%Mem=4GB
# td=(NStates=1) iop(3/107=0140000000,3/108=0140000000) iop(3/107=0140000000,3/108=0140000000) CAM-B3LYP/6-31G(d,p) 

TD

0 1
12 -5.59551105770577  1.17171204550455  0.27475608080808
 6 -4.99511989918992 -2.12222068536854 -0.34689155595560
 6 -3.41630041914191  1.16082636743674  2.78921429472947
 6 -6.09309810551055  4.56977024122412  0.55824603340334
 6 -8.06163193029303  1.07817866856686 -2.31856953045305
 7 -4.34906916021602 -0.38101629342934  1.06962830163016
 6 -4.30759428692869 -1.69639334093409  0.73503585318532
 6 -3.17811093559356 -2.39768307110711  1.50798516221622
 6 -2.91231440244024 -1.41430432133213  2.58498505460546
 6 -3.54613204060406 -0.10021264896490  2.08796338153815
 6 -3.62425546494649 -1.79101254265427  3.90348304770477
 6 -1.91897709090909 -2.66173358265827  0.74014932043204
 6 -0.90543218671867 -3.58732631323132  1.48524211221122
 6  0.30935603610361 -3.81177501820182  0.65803399809981
 8  0.51945200950095 -3.47703501710171 -0.50902713691369
 8  1.03116996269627 -4.81456107340734  1.21703631093109
 7 -4.83874469076908  2.60864024092409  1.46156638833883
 6 -3.98455054485449  2.38854627632763  2.43115371867187
 6 -3.69185868956896  3.63137163936394  3.10685124132413
 6 -4.46220677337734  4.63944547284729  2.48361763306331
 6 -5.14372047624762  3.99439753495350  1.42733882618262
 6 -2.78822418551855  3.73264063986399  4.21757594699470
 6 -4.51403793439344  5.98022544304430  2.88411791659166
 8 -3.95164521252125  6.58198608660866  3.78870277017702
 7 -6.75670947084708  2.54741463726373 -0.77510916721672
 6 -6.80209292409241  3.87416703390339 -0.38881056975698
 6 -7.81520670707071  4.59110583538354 -1.12234634413441
 6 -8.42904235753575  3.69118604850485 -2.02749169356936
 6 -7.72177106760676  2.40745675447545 -1.76458240474047
 6 -8.27965095599560  6.05046495589559 -1.20376988578858
 6 -9.50089445274528  3.89221962016202 -3.09668430123012
 6 -8.96781823552355  4.27442558875888 -4.54082048604860
 7 -6.34765318431843 -0.16009102680268 -1.13801889388939
 6 -7.31730125972597 -0.06565263386339 -2.06437064776478
 6 -7.60221772897290 -1.36802850645064 -2.67134965756576
 6 -6.61807135593559 -2.20760033183318 -2.10312647834783
 6 -5.97906632203220 -1.39449301440144 -1.12788891929193
 6 -8.55114057185718 -1.71737186318632 -3.74700159635964
 6 -6.20691435853585 -3.56177176107611 -1.92800635573557
 8 -6.78872326782678 -4.58567626602660 -2.49955622072207
 6 -5.11554011611161 -3.56824487708771 -0.81129344914491
 6 -5.34956243364336 -4.65944138523852  0.24188786058606
 8 -5.67632340394039 -4.49555856395640  1.36211257465747
 8 -5.12096179437944 -5.87896909330933 -0.34045719031903
 6 -5.42709027322732 -6.94455630893089  0.62346417621762
 6  2.23827480068007 -5.18116923712371  0.51420537493749
 6  3.25330986598660 -4.17674783568357  0.84498239803980
 6  3.79115850605061 -3.20371324142414 -0.03996036103610
 6  3.49399373827383 -3.02846778807881 -1.48558806330633
 6  4.98753517931793 -2.44151919951995  0.51686548534853
 6  6.43954882618262 -2.67699062426243 -0.15998453105311
 6  7.55753107670767 -1.88679803530353  0.47356304680468
 6  8.92924374567457 -1.92550738433843 -0.13274105660566
 6  9.63166954865487 -3.21377201760176  0.36311285358536
 6  9.83474405350535 -0.74027426482648  0.35012752825283
 6  11.23065036743674 -0.80634024092409 -0.29708847504750
 6  12.26049373797380  0.39809443694369  0.17509435703570
 6  13.56407886368637  0.45386025592559 -0.56273103630363
 6  14.47013531253125 -0.72712211481148 -0.22191634253425
 6  14.28709464906491  1.86784295589559 -0.21571082588259
 6  15.52729692009201  2.28435646384638 -1.00050504550455
 6  16.15070765516552  3.64002875567557 -0.52556316951695
 6  17.51680692979298  3.93379122072207 -1.22259619481948
 6  17.32093468316832  4.00351524322432 -2.82844506870687
 6  18.14514392049205  5.18535380068007 -0.64014347324732
 1 -2.68308403120312  0.96397067246725  3.57054752315232
 1 -6.35133311211121  5.58356373677368  0.75401439313931
 1 -9.02340274747475  1.11931223412341 -3.01100657945795
 1 -3.43258432323232 -3.39563487888789  1.96974503530353
 1 -1.77029415331533 -1.15049271087109  2.67232850895089
 1 -3.17392717181718 -2.79345250645064  4.30807435143514
 1 -3.40613140584058 -0.92076198059806  4.63274530433043
 1 -4.66521903360336 -1.68871795269527  3.92732668316832
 1 -2.32273758745875 -3.05340485778578 -0.25345596939694
 1 -1.54614244664466 -1.64626374267427  0.41905002660266
 1 -0.54565999949995 -3.19950124572457  2.35197941664166
 1 -1.30076479807981 -4.63591072227223  1.93525532353235
 1 -1.56206632043204  3.63161268566857  4.02870878057806
 1 -2.91125211531153  4.77131433743374  4.67735399309931
 1 -2.81075407040704  2.93155415291529  4.99257426342634
 1 -5.22316538043804  6.63461765616562  2.37378269966997
 1 -10.09295842934293  3.10246090319032 -3.16572982468247
 1 -10.19448024592459  4.71973581768177 -2.81572186288629
 1 -9.72704250405040  4.42089050305030 -5.22974817711771
 1 -8.24827433683368  5.28690843624362 -4.53936389138914
 1 -8.26122597159716  3.25866522532253 -4.76068599339934
 1 -8.04567215681568 -1.14020456335634 -4.66774777307731
 1 -8.76458744174417 -2.73978738383838 -3.94071670867087
 1 -9.66638671817182 -1.24075089848985 -3.90795770247025
 1 -4.19874723212321 -3.97803262986299 -1.58974226112611
 1  2.40565169816982 -6.28143608660866  0.80632658955896
 1  1.85209595299530 -5.35296227232723 -0.59556300590059
 1  3.70283240554055 -4.21089037083708  1.77322232983298
 1  2.41297628432843 -3.40262588368837 -1.75885842684268
 1  3.60811542484248 -1.95684924422442 -1.69159162966297
 1  4.12932510651065 -3.50979470867087 -2.10997992389239
 1  4.76030607150715 -1.36128255225523  0.81033291679168
 1  5.16723525082508 -2.63865549794979  1.47745262556256
 1  6.81073860056006 -3.69885307740774 -0.11089320532053
 1  6.71971213161316 -2.55886349534954 -1.24221481698170
 1  7.24431336263626 -0.79305263036304  0.44733197869787
 1  7.65921802470247 -1.99577616071607  1.56513089838984
 1  8.94302841214121 -1.87056533173317 -1.27470080818082
 1  9.07289180788079 -4.00391916331633 -0.14410820322032
 1  10.77786712751275 -3.46529073117312  0.07748763526353
 1  9.49143820522052 -3.38250934243424  1.39574001670167
 1  9.34054320492049  0.41507723392339 -0.03609824602460
 1  10.00138023552355 -0.62834936883688  1.55344488448845
 1  11.96453159445945 -1.82936296819682 -0.17425179837984
 1  11.30377646434643 -0.55880878577858 -1.42432376597660
 1  11.67361839533953  1.29468389758976  0.01761220602060
 1  12.27407223052305  0.46639783118312  1.28270655085509
 1  13.32228902960296  0.83313774607461 -1.56253849254926
 1  14.56129546784678 -0.85668388108811  0.88459413941394
 1  14.14777034803480 -1.80646966326633 -0.58302462396240
 1  15.66416740514051 -0.57449064726473 -0.62127902040204
 1  13.44131232543254  2.65211983108311 -0.20479226692669
 1  14.59737643794379  1.64216450565057  0.86922413631363
 1  16.33746540234023  1.30331894459446 -1.00904739543954
 1  15.02976856025603  2.38455236803680 -2.03373475317532
 1  15.52222362696270  4.58998437643764 -0.78741073917392
 1  16.22006477657766  3.65863250465047  0.53294319471947
 1  18.15785946734674  2.79954144534454 -0.98607768736874
 1  16.60088080848085  4.77872440134013 -2.88208056785679
 1  18.32047797129713  4.10040955425543 -3.45445005010501
 1  16.84401460166017  3.05284635463546 -3.29624765936594
 1  18.10278632583258  5.03831504900490  0.62599426362636
 1  19.26846436873688  5.31900605280528 -0.98377529192919
 1  17.55987753865386  5.95741524462446 -0.95823988528853
 1 -4.92876817821782 -7.87148658175818  0.19520598289829
 1 -6.60403483378338 -7.09120620722072  0.79030253775378
 1 -5.00530869946995 -6.62200377597760  1.49683414001400
 8 -7.79679727132713  6.95359185998600 -0.52615039903990
 1 -9.15345364246425  6.25525117001700 -1.85086076887689

