%nproc=4
%Mem=4GB
# td=(NStates=1) iop(3/107=0140000000,3/108=0140000000) iop(3/107=0140000000,3/108=0140000000) CAM-B3LYP/6-31G(d,p) 

TD

0 1
12 -5.51270277687769  1.18021289558956  0.16104470967097
 6 -5.04782516971697 -2.19692815611561 -0.34180104690469
 6 -3.42852164126413  1.21090137493749  2.84762013531353
 6 -6.06945574127413  4.59403266746675  0.53753396219622
 6 -8.05647141424142  1.12862371307131 -2.28780645414541
 7 -4.22447670097010 -0.31010920272027  1.05104644344434
 6 -4.26812033953395 -1.57988168976898  0.66621897149715
 6 -3.25217834233423 -2.42520582338234  1.49810417411741
 6 -2.86778994999500 -1.28177106800680  2.57691424752475
 6 -3.54375180258026 -0.00985361306131  2.14906949214922
 6 -3.42492553195320 -1.63686712811281  3.99943264266427
 6 -2.06168136133613 -2.66140354965497  0.61912721822182
 6 -1.09019066256626 -3.53987156775678  1.31626521452145
 6  0.18281338183818 -3.94423826452645  0.56401459615962
 8  0.41547161146115 -3.44622193579358 -0.48844507870787
 8  1.00950779647965 -4.64779439673967  1.23392800010001
 7 -4.81043185948595  2.59156853375338  1.38104833653365
 6 -3.98673076287629  2.33872129382938  2.42628323162316
 6 -3.75764526822682  3.59993849604961  3.19478003420342
 6 -4.33547410011001  4.58939046734673  2.52083135443544
 6 -5.17697380158016  3.99581767696770  1.43982007430743
 6 -2.77658302140214  3.78715609140914  4.37319150855086
 6 -4.39752628322832  6.01707912841284  2.97994749954995
 8 -3.82780282828283  6.58161604960496  3.85123902380238
 7 -6.81096489638964  2.54671456725673 -0.79385104140414
 6 -6.87033974877488  3.94238385558556 -0.43696538523852
 6 -7.89098428482848  4.55582230703070 -1.21086519601960
 6 -8.41273072637264  3.61076800670067 -2.03999294369437
 6 -7.69507839833983  2.34721072987299 -1.76554250075008
 6 -8.11531452235224  5.99954986438644 -1.19487899669967
 6 -9.39408377167717  3.72015241344134 -3.21873650645064
 6 -8.54987644134414  4.09413755995600 -4.47828423242324
 7 -6.34103252225222 -0.14861987968797 -1.08739383138314
 6 -7.39686921652165 -0.03174924352435 -2.02828703940394
 6 -7.65590309750975 -1.40448215181518 -2.64415693829383
 6 -6.72103165196520 -2.16502607440744 -2.00724689038904
 6 -6.02567098249825 -1.42828639373937 -1.02363849424942
 6 -8.63935939373937 -1.73504363036304 -3.70895779197920
 6 -6.26388005510551 -3.54277986188619 -1.92542609770977
 8 -6.57488188368837 -4.55211290969097 -2.53381964706471
 6 -5.23549211131113 -3.54902295489549 -0.83000532033203
 6 -5.27014449184918 -4.68184362546255  0.21127479927993
 8 -5.62530830243024 -4.43251225932593  1.32704906830683
 8 -5.19685938413841 -5.89323051945194 -0.42587573217322
 6 -5.48326589078908 -7.02515436873687  0.41899372917292
 6  2.26851782498250 -5.21671279147915  0.68137209160916
 6  3.30849538453845 -4.09417957885789  0.97982588238824
 6  4.00599999019902 -3.32386525662566  0.17575121012101
 6  3.78827316621662 -3.22910785208521 -1.31642114661466
 6  5.15273169896990 -2.36285133273327  0.56870066886689
 6  6.48941381268127 -2.78083100830083  0.01376284368437
 6  7.51462678627863 -1.67363671917192  0.44782047254725
 6  8.82191301260126 -1.90531536513651 -0.25686346884688
 6  9.45523190489049 -3.29753039343934  0.09274581688169
 6  9.92095267436744 -0.79710994839484  0.22026454195420
 6  11.32922022442244 -0.79556916381638 -0.47223598979898
 6  12.08731642024202  0.56387101460146 -0.04810796319632
 6  13.42025448124812  0.66823169306931 -0.65990075327533
 6  14.34181248024803 -0.64863426602660 -0.24672882378238
 6  14.01234717431743  1.94365053665367 -0.30475973077308
 6  15.38393258365836  2.28044607280728 -0.95958095309531
 6  15.99667225162516  3.59063381618162 -0.47290790399040
 6  17.41062631173117  3.80690853245325 -1.04133806900690
 6  17.35235782548255  3.81603649534953 -2.55915814001400
 6  17.96934634073407  5.15345061036104 -0.64611407030703
 1 -2.74133985678568  0.99682395779578  3.61198166656666
 1 -6.41846982578258  5.48700408080808  0.95506449814981
 1 -8.80211061826183  1.02805310821082 -3.07723320212021
 1 -3.67460852565257 -3.26535185058506  2.03623168396840
 1 -1.70800792469247 -1.12884054565457  2.65494677077708
 1 -2.78507828692869 -2.49853301450145  4.29711325532553
 1 -3.41893268596860 -0.86738664306431  4.76461849164917
 1 -4.49174168586859 -1.68212729362936  3.88606255675568
 1 -2.41186650035003 -3.18943846114611 -0.29436005980598
 1 -1.68366619901990 -1.84758387468747  0.31710983258326
 1 -0.64375980948095 -3.10348164376438  2.26611082978298
 1 -1.39309403100310 -4.59389652085209  1.59465126312631
 1 -1.79179929372937  3.91796132053205  4.02615852555255
 1 -3.05738672877288  4.71217842384238  4.95544180188019
 1 -2.73923691869187  2.72646364386439  4.96859186518652
 1 -4.97089015291529  6.66681087548755  2.29042436383638
 1 -10.00366950045004  2.68662932003200 -3.43942719441944
 1 -10.11067186508651  4.47550139423942 -2.84442473317332
 1 -9.35321512131213  4.20808922292229 -5.26088129042904
 1 -7.97251676107611  5.14874461986199 -4.40666062106211
 1 -7.99511936093609  3.32568192699270 -4.79224914971497
 1 -8.55100268986899 -1.01215175807581 -4.63851484978498
 1 -8.78424940794079 -2.91297470257026 -3.95986862386239
 1 -9.63677375687569 -1.63303012641264 -3.18818572527253
 1 -4.45649300670067 -3.84303913051305 -1.28705199209921
 1  2.49495062806281 -6.25763370637064  1.24719067596760
 1  1.91338208160816 -5.36284326042604 -0.46545999559956
 1  3.66260838313831 -4.01465074687469  2.08019302690269
 1  2.79323431013101 -3.43376899799980 -1.49303184418442
 1  3.90049466276628 -2.14811837113711 -1.69835230573057
 1  4.37835000900090 -4.02370609980998 -1.62973189908991
 1  5.08760880178018 -1.45032145614561  0.36085796929693
 1  5.21882040934093 -2.32167379977998  1.74237911821182
 1  6.86998452515251 -3.68472166426643  0.34347223122312
 1  6.41744190459046 -2.71448905790579 -1.11976257175718
 1  7.14417334863486 -0.69105243034303  0.00626787228723
 1  7.61119322222222 -1.78637522062206  1.50220460576058
 1  8.75991010031003 -1.86680495569557 -1.36979031713171
 1  8.77954247294729 -4.08881765316532 -0.29395318771877
 1  10.46382572337234 -3.52812701480148 -0.44162427592759
 1  9.79739880128013 -3.27234832633263  1.07500794349435
 1  9.31615076567657  0.15709143534353  0.24580994479448
 1  10.08816891439144 -1.06982351625163  1.30856039603960
 1  11.94871001230123 -1.63000303220322 -0.17804217741774
 1  11.08250433713371 -0.73217612251225 -1.66931826542654
 1  11.53483451695170  1.48031246044605 -0.35380493569357
 1  12.29695451875187  0.63702489388939  0.99254753495350
 1  13.47935473617362  0.72741717401740 -1.79811204990499
 1  14.31570090839084 -0.77046525922592  1.01710739073907
 1  13.60954652565256 -1.37824684098410 -0.61222754425443
 1  15.52715370377038 -0.79034223242324 -0.55032192469247
 1  13.34410260446045  2.78366298539854 -0.71502329002900
 1  14.20515721602160  1.84090437963796  0.83599081298130
 1  16.07979963576357  1.48737735043504 -0.71850834153415
 1  15.33109869326933  2.29479339213921 -2.23852523222322
 1  15.27055846044605  4.40206558455846 -0.89149114721472
 1  15.91566433653365  3.73579022042204  0.55528542894289
 1  17.99869355075507  3.05181667286729 -0.67347642724272
 1  16.69393011341134  4.65650217911791 -2.93618597839784
 1  18.20929685318532  4.03715322862286 -3.15319992509251
 1  17.19853005320532  2.80129119911991 -3.01697973257326
 1  18.14355040224022  5.16708792629263  0.38318998319832
 1  19.13564108640864  5.24105825802580 -1.05967288168817
 1  17.26009756065606  5.97162666576658 -0.77025108640864
 1 -5.16343164456446 -7.87082651575157 -0.25482902060206
 1 -6.52138656895690 -7.07505459205921  0.53913742124212
 1 -5.10458862746275 -6.82262383798380  1.54319877647765
 8 -7.67436502810281  6.81667816861686 -0.42493027702770
 1 -8.89852814991499  6.55397104200420 -2.15365104790479

