%nproc=4
%Mem=2GB
# td=(NStates=1) iop(3/107=0140000000,3/108=0140000000) iop(3/107=0140000000,3/108=0140000000) CAM-B3LYP/6-31G(d,p) 

TD

0 1
12 -6.66367893999400  0.76242538663866  0.04319193869387
 6 -4.60366747324732 -2.06157457925793  0.38136841384138
 6 -3.98850066546655  2.70290192329233  0.96000888248825
 6 -8.79143184788479  3.35234925902590 -0.43234273597360
 6 -9.36277437503750 -1.48770179977998 -0.76386644534453
 7 -4.62820789268927  0.31934133183318  0.46833586568657
 6 -4.00611787738774 -0.97103681048105  0.62059261466147
 6 -2.51649506810681 -0.71978373757376  1.02229429172917
 6 -2.30897086288629  0.81848199699970  1.38152031453145
 6 -3.70532679557956  1.22649273447345  0.85738051275128
 6 -2.24335062076208  1.04473626952695  2.81432599539954
 6 -1.54492324072407 -1.05046761016102 -0.16311498519852
 6 -0.25084320262026 -1.81271297789779  0.33530260376038
 6  0.69669074827483 -1.69331656855686 -0.72985115891589
 8  0.73900396849685 -1.27130974347435 -1.81135212541254
 8  1.85529581618162 -2.48765906450645 -0.32657758025803
 7 -6.27617936013601  2.65517588758876  0.30951469936994
 6 -5.19334989588959  3.26039468266827  0.63311960816082
 6 -5.50357457265727  4.77687737253725  0.69847471607161
 6 -6.76861757515752  4.85962205270527  0.22109869316932
 6 -7.44780648454846  3.46830563896390  0.06971180258026
 6 -4.47019193949395  5.73627105760576  1.14755242324232
 6 -7.57773933523352  6.05645256535654  0.06703622732273
 8 -7.19743365956596  7.23599521612161  0.33191104790479
 7 -8.76563011651165  0.91361222042204 -0.35244789388939
 6 -9.43134680708071  2.09132386768677 -0.45951700400040
 6 -10.82240887118712  1.86278614971497 -0.80479626082608
 6 -10.93327768526853  0.37305821022102 -0.96591744724472
 6 -9.64141580488049 -0.19301746494650 -0.65321739843984
 6 -11.86666344164416  2.86047224032403 -1.00251490229023
 6 -12.12989611011101 -0.47651121342134 -1.33007114081408
 6 -11.93952081418142 -0.89424158935894 -2.75690848554855
 7 -6.91146762966297 -1.21177373867387 -0.40967361186119
 6 -8.17764042564256 -2.14567456415642 -0.56300949894990
 6 -7.80372795789579 -3.47411473387339 -0.51675268536854
 6 -6.45233085428543 -3.55234439533953 -0.04005226582658
 6 -5.90808709740974 -2.08812762726273 -0.04820863656366
 6 -8.68929745324532 -4.59672705050505 -0.97766058195820
 6 -5.31824802930293 -4.44657045514551  0.36365439113911
 8 -5.24543629232923 -5.60779131743174  0.28778928552855
 6 -4.05807953335334 -3.49067962716272  0.56782142934293
 6 -3.53942745364536 -3.86847302280228  1.87886759975998
 8 -4.12438767886789 -3.96036277107711  2.97915658545855
 8 -2.08936061096110 -4.07531383668367  1.63983392259226
 6 -1.46188471057106 -4.43287837793779  2.75148957415742
 6  3.07059895269527 -2.47824300120012 -1.14218546264626
 6  4.16443021042104 -1.49504650575058 -0.86514204650465
 6  5.16004676007601 -1.27706457785779 -1.53965016661666
 6  5.39929391319132 -1.95832896759676 -2.75006198839884
 6  6.08159198379838 -0.11093874677468 -1.05990254875487
 6  7.35953464746475 -0.71390717281728 -0.46394313161316
 6  8.53358591889189  0.21070670527053 -0.25777425792579
 6  9.83678676807681 -0.52879980028003  0.10927262156216
 6  9.69387690399040 -1.10398921362136  1.60800516931693
 6  10.89014134413441  0.57083193739374  0.23529836823682
 6  12.28959422992299  0.15798710591059  0.28727703890389
 6  13.26868841144114  1.13157043174317  0.42397529592959
 6  14.79620595579558  0.53958723682368  0.63839850195020
 6  14.91887687578758  0.01285900540054  2.16140606460646
 6  15.83454308270827  1.70608551055106  0.29322252755276
 6  17.14545402350235  1.04156938133813 -0.12711958585859
 6  18.10434998239824  2.10737792899290 -0.38308845564556
 6  19.56258845994600  1.57687618241824 -0.82017210091009
 6  19.33596339763977  0.66610204050405 -2.23645943714371
 6  20.56538370727073  2.53085450345035 -0.87616271217122
 1 -2.97228786708671  3.22362361336134  1.25339474117412
 1 -9.38385236773677  4.37614669976998 -0.41540517441744
 1 -10.22865535713571 -2.27390779007901 -1.04270709660966
 1 -2.02639515631563 -1.20054767256726  2.11831187948795
 1 -1.63331266986699  1.48025850205020  1.03739019241924
 1 -1.42635401910191  0.46856517091709  3.11257196829683
 1 -2.12356052995300  1.89084766116612  3.33083920172017
 1 -3.12520485298530  0.60445833113311  3.40240610971097
 1 -2.16586560686069 -1.58004927792779 -0.84302208900890
 1 -1.54315948494850 -0.21207268016802 -0.83568335913591
 1  0.23838183648365 -1.35515694899490  1.16929279447945
 1 -0.75124884468447 -2.94021035483548  0.98737896999700
 1 -3.64132866326633  5.53090091799180  0.61204616231623
 1 -4.97912819341934  6.61016369226923  1.32841974807481
 1 -4.07339836803680  5.49733869486949  2.20480825312531
 1 -8.95596861096110  5.84424953415342 -0.33209958575858
 1 -12.35126468006801 -1.43418428592859 -0.66410083728373
 1 -13.10805702070207  0.11924832463246 -1.03602123852385
 1 -12.92183000610061 -1.35623773917392 -2.95831294839484
 1 -12.11345830963096  0.05644306580658 -3.39780194969497
 1 -10.93023984838484 -1.11233455045505 -3.29425603300330
 1 -9.21805098839884 -4.15993254885489 -1.93908613661366
 1 -8.04869008360836 -5.44393440604060 -0.93736338823882
 1 -9.95458273827383 -4.55719768096810 -0.16437182768277
 1 -3.38753833523352 -3.79283300820082 -0.40215852265227
 1  3.51219283468347 -3.73262053585359 -0.88913463056306
 1  2.81900618941894 -2.57034294929493 -2.32824305960596
 1  4.00927825552555 -1.32110485888589  0.11786538813881
 1  4.49745280228023 -2.27429090159016 -3.30495061006101
 1  5.85741932033203 -1.37642631803180 -3.52660388428843
 1  5.87937176457646 -2.84715733003300 -2.68974315811581
 1  6.69509993189319  0.71220655805581 -1.81085370257026
 1  5.54346945634563  0.33781932973297 -0.28056231963196
 1  6.88800997989799 -1.25096329342934  0.19745146674667
 1  7.75192059045905 -1.45221401170117 -1.29475895179518
 1  8.56244837623762  0.81008160296030 -1.43277606290629
 1  8.15358385648565  0.80241542974297  0.55869157755776
 1  10.01347379447945 -1.37871531523152 -0.74877203480348
 1  8.75701794609461 -1.56707552325233  1.43284164496450
 1  10.56173224262426 -1.86738061926193  1.34128602000200
 1  10.03840705230523 -0.50004122652265  2.51271257635764
 1  11.17267090489049  1.24605736563656 -0.54807197879788
 1  10.86906665326533  1.33814268986899  0.98304218451845
 1  12.63360090229023 -0.21301374087409  1.10154383768377
 1  12.71217337133713 -0.88272649324933 -0.42083508100810
 1  13.33800867086709  1.72670221522152 -0.54487339193919
 1  12.97359940474047  1.97496174747475  1.35351114051405
 1  14.78726015181518 -0.11099861586159  0.01125293409341
 1  14.97461736163616  0.69965036053605  2.82584535753575
 1  14.39102637613761 -0.81828950085008  2.51841934003400
 1  16.03756078917892 -0.31300488358836  1.92755923362336
 1  15.46659779467947  2.06564655805581 -0.62654262896290
 1  15.86596062866287  2.55250478597860  1.02671099429943
 1  17.43853516861686  0.32781595219522  0.75542572927293
 1  16.94337186138614  0.27700586978698 -0.84541591899190
 1  17.64511951905191  2.63214976277628 -1.50220320862086
 1  18.02620261636164  2.86445035193519  0.34386105660566
 1  19.69556211741174  0.92776562276228 -0.00921757095710
 1  18.19158747674767  1.05537058665867 -3.20965309050905
 1  20.34589887988799  0.76370456865687 -2.68349248264826
 1  18.88999172617262 -0.46260397879788 -2.15842391709171
 1  21.09784656325633  3.12889246834683  0.05679643324332
 1  21.16010375067507  2.39686626932693 -1.37507022202220
 1  20.32151880478048  3.26565405260526 -1.07188198449845
 1 -0.71282690779078 -4.58681143054305  2.43902225022502
 1 -1.90321000200020 -4.98667594129413  3.31350198679868
 1 -1.51492550585059 -3.40324880198020  3.32378653185318
 8 -11.69993836813681  3.98935373457346 -0.82147396109611
 1 -12.78886939843984  2.45569680978098 -1.36322692769277

