%nproc=4
%Mem=2GB
# td=(NStates=1) iop(3/107=0140000000,3/108=0140000000) iop(3/107=0140000000,3/108=0140000000) CAM-B3LYP/6-31G(d,p) 

TD

0 1
12 -6.66219879197920  0.57313645774577  0.04964258375838
 6 -4.56853395989599 -2.11469989178918  0.49219949694970
 6 -4.16333814921492  2.68139977307731  1.07057993959396
 6 -8.93397610231023  3.19993401750175 -0.05427492919292
 6 -9.23621171877188 -1.61946497609761 -0.51164122282228
 7 -4.75148021992199  0.27050644834483  0.62813184528453
 6 -4.11966923252325 -0.88041774857486  0.72552310771077
 6 -2.53683710231023 -0.60532229142914  0.90433249554956
 6 -2.49733969976998  0.85891604040404  1.21320348284828
 6 -3.84996125902590  1.33701378657866  1.03981875657566
 6 -2.09103538923892  1.30415221112111  2.57582214501450
 6 -1.52812156055606 -1.13883644704470 -0.15812448614861
 6 -0.02255037333733 -1.07531923852385  0.31629070257026
 6  0.88717979717972 -1.35780301720172 -0.85314348814882
 8  0.53575364346435 -1.03387600010001 -1.91919290949095
 8  1.98816910351035 -1.88770906950695 -0.42812773527353
 7 -6.59012075427543  2.56463683368337  0.33922767066707
 6 -5.49801036193619  3.19214785798580  0.72154845104510
 6 -5.88186240144014  4.59808949374937  0.80902577117712
 6 -7.18126884028403  4.81416750725073  0.55622220552055
 6 -7.68629033293329  3.50211902030203  0.30780561196120
 6 -4.86755167546755  5.62794022452245  1.04248191619162
 6 -8.02842440374037  6.02937985808581  0.39496902060206
 8 -7.64007792399240  7.07912952955296  0.51791964876488
 7 -8.59768332183218  0.82559341854185 -0.46785943504350
 6 -9.25950962336234  1.94022875817582 -0.59274032633263
 6 -10.80290692099210  1.64887475857586 -0.93462924412441
 6 -10.73436779427943  0.20885178957896 -0.92056291179118
 6 -9.44879654295429 -0.21784994819482 -0.63107518421842
 6 -11.84655143044304  2.61921811491149 -1.16081073187319
 6 -11.99852297279728 -0.67575113741374 -1.23070120382038
 6 -12.11639850195020 -0.85328749394939 -2.74771756645665
 7 -6.95749223212321 -1.42258481978198  0.05238259375938
 6 -7.99238189978998 -2.24250424712471 -0.27658085608561
 6 -7.57425501060106 -3.58639596199620 -0.32113312341234
 6 -6.25863148434843 -3.64308346924692 -0.11117937853785
 6 -5.99163545224522 -2.22927174167417  0.24296048034803
 6 -8.48989751325133 -4.72713009080908 -0.58525134103410
 6 -5.16950315481548 -4.58481427952795  0.20962898859886
 8 -5.04777652635263 -5.75211574987499  0.21434194079408
 6 -3.91160488588859 -3.45354591379138  0.46422106930693
 6 -3.27609112001200 -3.97590376587659  1.77414712771277
 8 -3.97296253635364 -4.12517925272527  2.82688135793579
 8 -1.90292196709671 -3.81857816311631  1.79940988018802
 6 -1.22925144724472 -4.26141123122312  2.73740816601660
 6  3.05424731753175 -2.21285646254625 -1.49213045714571
 6  4.15864963236324 -1.15029203030303 -1.20662619491949
 6  5.05696645204520 -0.83207007840784 -2.13835003660366
 6  5.14294827862786 -1.43145628032803 -3.61111809400940
 6  6.08455227982798  0.24629697679768 -1.67083364186419
 6  7.30969966396640 -0.39183496559656 -0.93179991729173
 6  8.43367592789279  0.66028166276628 -0.58232671317132
 6  9.75216830623062 -0.09311623192319  0.04423611791179
 6  9.47636515281528 -0.53214202890289  1.36497086588659
 6  10.78919124912491  0.93266812101210  0.10446528492849
 6  12.12751802230223  0.14083539073907  0.28800711191119
 6  13.27002854545455  1.30052732743274  0.25189808820882
 6  14.67034336953695  0.46896017411741  0.64165882798280
 6  14.69530451855185  0.43674139363936  2.46196612061206
 6  15.87022665106511  1.48592349434944  0.02440564586459
 6  17.20581005910591  0.76534175857586  0.08235136123612
 6  18.24605415281528  1.53456064726473 -0.40647079387939
 6  19.76019822092209  0.77170566536654 -0.46698678237824
 6  19.93230303160316 -0.39707427712771 -1.59923571477148
 6  20.98126529542954  1.61384280228023 -0.35644073997400
 1 -3.53051368966897  3.40538178917892  1.40587998969897
 1 -9.78071205370537  3.79575866096610  0.12944931103110
 1 -9.88579107070707 -2.66827722702270 -1.02541536743674
 1 -2.08157067386739 -1.10850846864686  1.91425147344734
 1 -1.72498183678368  1.47389786598660  0.41866832023202
 1 -1.27406879057906  0.80093840824082  2.54903561466147
 1 -2.05646382028203  2.19993857025703  2.74009012681268
 1 -2.91004333683368  1.05930381568157  3.18087395649565
 1 -1.79457847814782 -2.08542981598160 -0.34753254005400
 1 -1.66562173117312 -0.53380485338534 -1.23443323412341
 1  0.32598059635964  0.12807137383738  0.48280414561456
 1  0.03467974817482 -1.87356369016902  1.15100533263326
 1 -4.32142667306731  5.77067489538954  0.08804376207621
 1 -5.26696697729773  6.83036571247125  1.26065297139714
 1 -4.23445447364737  5.72065102610261  2.14951272357236
 1 -8.87904091819182  6.03818892809281 -0.13689006480648
 1 -11.91630118371837 -1.45391625912591 -0.60876530373037
 1 -12.84451066606661 -0.37237083728373 -0.76520415681568
 1 -13.03326114921492 -1.48530064546455 -3.08851596869687
 1 -12.22122908670867 -0.14948752725273 -3.13889605910591
 1 -11.27571439583959 -1.23732704970497 -3.11120772817282
 1 -8.93871305460546 -4.46809336493649 -1.76273850185019
 1 -7.63997921252125 -5.72560257285729 -0.65999565146515
 1 -9.25684296429643 -5.39672163336334  0.06520112961296
 1 -3.14616419781978 -3.85931965686569 -0.09032733953395
 1  3.67908952435243 -3.17858513231323 -1.36412212931293
 1  2.55928021682168 -2.22238815381538 -2.58725896119612
 1  4.13646097379738 -0.56377912631263 -0.25140153855386
 1  4.20721377837784 -1.38120159265927 -4.01765188018802
 1  5.91979555795580 -1.05342401780178 -4.20808203210321
 1  5.25975980338034 -2.45132774707471 -3.54204838863887
 1  6.21289171107111  0.74687002440244 -2.44703732093209
 1  5.76990209960996  1.18786433423342 -0.95981024442444
 1  7.01064224312431 -0.86503470057006  0.31521324292429
 1  7.68798419681968 -1.57676646694669 -1.51779125502550
 1  8.82391452285228  1.27314790959096 -1.42047483278328
 1  7.85081357945795  1.66716190439044  0.12257796619662
 1  9.97726017311731 -1.01833927762776 -0.52148930653065
 1  8.79986223052305 -1.04774359005901  1.03381174197420
 1  10.50263633303330 -1.15804968616862  1.77057894929493
 1  9.16208942054205  0.26041481908191  2.31239254435444
 1  10.69065270307031  1.62431519141914 -0.79636680828083
 1  10.71284103070307  1.67987686328633  0.89660354065407
 1  12.25033257545754 -0.29905234473447  1.29121280458046
 1  12.36339849384938 -0.53759197979798 -0.52309530703070
 1  13.64815968596860  1.52629217421742 -1.22689159375938
 1  12.89654169896989  2.19007325862586  0.99338512791279
 1  14.52939436523652 -0.77416493249325  0.19329113791379
 1  14.08052795269527  1.64740513601360  3.09937271027103
 1  13.83359063256326 -0.31683935583558  3.17197469556956
 1  15.81489852295230 -0.06265984908491  2.94376085378538
 1  15.75664679957996  1.80040003340334 -1.06838681338134
 1  15.59857388998900  2.37124666016602  0.75523384658466
 1  17.40738205330533  0.49781295189519  1.36585677237724
 1  17.26844436863686 -0.43576540734073 -0.35455683308331
 1  18.22973798089809  2.01172772057206 -1.71874486278628
 1  18.29724972107211  2.44006791369137  0.62904957545755
 1  19.61818437963796  0.20728357455746  0.40207355815582
 1  20.30031834983498  0.16313136273627 -2.75660778597860
 1  21.01820611061106 -1.13823562536254 -1.08173230663066
 1  19.16623935093509 -0.82777049544955 -1.77784585928593
 1  21.08900567916792  2.32809238833883  0.57569832343234
 1  21.62960070037004  0.91449803250325 -0.49448216321632
 1  21.12648930183018  2.09883737093709 -1.17494229052905
 1 -0.36811243634363 -4.63684643404340  2.28487683568357
 1 -1.74276395739574 -5.08747602130213  2.96576721332133
 1 -1.26610062336234 -3.49786826392639  3.54517867106711
 8 -11.54402277657766  3.77190198939894 -1.04569638333833
 1 -12.86356686818682  2.29359059915992 -1.52929353435344

