%nproc=4
%Mem=4GB
# td=(NStates=1) iop(3/107=0140000000,3/108=0140000000) iop(3/107=0140000000,3/108=0140000000) CAM-B3LYP/6-31G(d,p) 

TD

0 1
12 -5.69286079267927  1.22716759105911  0.23271187638764
 6 -4.91236162336234 -2.13875233853385 -0.27742460926093
 6 -3.36346513561356  1.18492877767777  2.71839721302130
 6 -6.23554234993499  4.53000626482648  0.68384859365937
 6 -8.04786055315532  1.11354220492049 -2.41111878537854
 7 -4.46548080138014 -0.25233342514251  1.13039437823782
 6 -4.28872239973997 -1.56267996959696  0.73901625122512
 6 -3.23409653415341 -2.28921222402240  1.51082544624462
 6 -2.88940211121112 -1.38411130203020  2.67107366346635
 6 -3.59923735113511 -0.01980460816082  2.11764634983498
 6 -3.46578961836184 -1.77862130353035  4.05910861026103
 6 -2.03396859005901 -2.68888629792979  0.56961226672667
 6 -1.10924256775678 -3.70797837843784  1.24117770577058
 6  0.26818191869187 -4.00958479917992  0.68538673337334
 8  0.49584964926493 -3.44018133173317 -0.48072430663066
 8  1.10519736543654 -4.84061367866787  1.21960656795680
 7 -5.00520133643364  2.64252362926293  1.54079431113111
 6 -3.95061715151515  2.40079750145015  2.43152375567557
 6 -3.71796129982998  3.66179468166817  3.23567412361236
 6 -4.57498805150515  4.60055158345835  2.60138941024102
 6 -5.36879298349835  3.93934202940294  1.56532262456246
 6 -2.85979134223422  3.90548792459246  4.33959814921492
 6 -4.73055958655866  5.99980740124012  3.07896740154015
 8 -4.19775982398240  6.63337122512251  3.94217811771177
 7 -6.87228102800280  2.59259915571557 -0.73273492979298
 6 -6.99048176297630  3.89748936613661 -0.34812650135013
 6 -7.88129331573157  4.56448317311731 -1.23274738423842
 6 -8.37442689598960  3.73617054695470 -2.14948389278928
 6 -7.86548543904390  2.35384139293929 -1.75822176867687
 6 -8.27271026192619  6.05584549394939 -1.24269377817782
 6 -9.26734109740974  3.94566496469647 -3.24554918771877
 6 -8.62906436013601  4.13340148634863 -4.64708111211121
 7 -6.35961438043804 -0.17612262996300 -1.06582167416742
 6 -7.39672920252025 -0.05156122472247 -2.08804301500150
 6 -7.54425193239324 -1.28530023362336 -2.62349487208721
 6 -6.65204475327533 -2.16105567736774 -2.02333849954996
 6 -5.92956137153715 -1.39377294239424 -1.03046917731773
 6 -8.47533299109911 -1.59733985998600 -3.74115101130113
 6 -6.20561422852285 -3.49811539543954 -2.08921247634763
 8 -6.46857125262526 -4.58930662906291 -2.70005627072707
 6 -5.07412597469747 -3.61073912651265 -0.84408672847285
 6 -5.29872735013501 -4.61678711981198  0.10578425022502
 8 -5.76316208780878 -4.58928793689369  1.24098046144614
 8 -4.97328702690269 -5.92202339873987 -0.42599574417442
 6 -5.28360592479248 -7.09817167046705  0.41616344614461
 6  2.35173614681468 -5.11131225142514  0.64375833023302
 6  3.42082661766177 -4.00614077497750  1.05913381318132
 6  3.99378876907691 -3.22214508460846  0.14864849984998
 6  3.63496783568357 -3.11421636293629 -1.24384388888889
 6  5.13350977677768 -2.22302735033503  0.66275007380738
 6  6.54439931123112 -2.64612753795380  0.12762422982298
 6  7.63188851245125 -1.73632298779878  0.69045473597360
 6  8.99279010031003 -1.93612844644464  0.04295651315131
 6  9.49306568826883 -3.39734037443744  0.25688223052305
 6  10.04254483358336 -0.78132837023702  0.43842635813581
 6  11.33597089948995 -0.89802940984098 -0.28968773497350
 6  12.27136482508251  0.27023165066507  0.09693654125413
 6  13.54837729352935  0.48988385828583 -0.68153291649165
 6  14.40687898689869 -0.71634103670367 -0.53276742764276
 6  14.25235117471747  1.70240641224122 -0.20155941074107
 6  15.54848903930393  2.03021104930493 -1.06840183518352
 6  16.09562214661466  3.42667742054205 -0.61783239643964
 6  17.46628187728773  3.87925576717672 -1.41673560876088
 6  17.33828641834183  4.00624551625162 -2.86563878807881
 6  17.79426883298330  5.20940620592059 -0.80758021692169
 1 -2.66373209600960  1.35479975537554  3.56377684608461
 1 -6.39178715751575  5.61407678807881  0.82679167086709
 1 -8.88268867606761  1.20158046094609 -3.28634411321132
 1 -3.61628269306931 -3.26951226662666  1.82930099089909
 1 -1.80287741164116 -1.32731039263926  2.76404768086809
 1 -2.95906568566857 -2.57624078527853  4.40523406740674
 1 -3.16177697039704 -0.95523542794279  4.74158618841884
 1 -4.56737924962496 -2.12922200310031  4.11181513201320
 1 -2.41613692739274 -2.93594311161116 -0.44446507030703
 1 -1.51663949634964 -1.68935805210521  0.34225234683468
 1 -0.85720115361536 -3.26686798239824  2.27805202390239
 1 -1.57174189578958 -4.66750388158816  1.51785358335834
 1 -1.90187030083008  3.34920444484448  4.24639054875488
 1 -2.84199518961896  4.98864607060706  4.55961221892189
 1 -3.52748574357436  3.19437043454345  5.12416742274227
 1 -5.69457252115212  6.52445664006401  2.32706802820282
 1 -10.02940207370737  3.29185984308431 -3.23713696539654
 1 -9.97707850575058  4.69279312341234 -3.00245053575357
 1 -9.26777657745775  4.39934834883488 -5.52453765606561
 1 -7.85215472487249  5.04243398879888 -4.55759571457146
 1 -8.01415126412641  3.40186954575458 -4.88876880168017
 1 -8.29745733533353 -0.93355389828983 -4.61528252655265
 1 -8.23584456745675 -2.54857826292629 -4.25714835183518
 1 -9.57850793029303 -1.69260608400840 -3.36610351705171
 1 -4.05504286168617 -3.82462728932893 -1.28983227012701
 1  2.56962809580958 -6.16839478247825  0.89611556845685
 1  2.14519526292629 -4.94455143124312 -0.40657410701070
 1  3.79184130643064 -3.96259554135414  2.02519752735274
 1  2.43811879857986 -3.06224184528453 -1.31026356735674
 1  3.91474608790879 -2.04154771407141 -1.60300277077708
 1  4.07298947294730 -3.95755948514851 -1.91139006490649
 1  4.64156419731973 -1.38094451845184  0.27850973447345
 1  5.31361988928893 -2.24660629302930  1.83608848914892
 1  6.81778930563056 -3.79743293539354  0.50021790579058
 1  6.55320548094809 -2.76484409340934 -0.96256685218522
 1  7.17820675197520 -0.76335966106611  0.74040128562856
 1  7.64650675357536 -1.93778036113611  1.74762914821482
 1  8.88962307160716 -1.79487776297630 -1.04389772787279
 1  8.74115863456345 -4.29482825422542 -0.17818161056106
 1  10.37112645344535 -3.37133133523352 -0.18418853235324
 1  9.71205026642664 -3.76891798329833  1.40582102480248
 1  9.45107425802580  0.17149287548755  0.24147951175117
 1  10.52702279977998 -0.99184571847185  1.44616415641564
 1  11.84226936823682 -1.82138217011701 -0.16710108330833
 1  11.07319340604061 -0.70877378227823 -1.46067740134013
 1  11.58456949044905  1.15904033323332  0.22618306310631
 1  12.46652147544754  0.00999219061906  1.19724800500050
 1  13.17343414411441  0.76141057335734 -1.82733497219722
 1  14.44598393669367 -1.12103031573157  0.63405908590859
 1  13.90171574257426 -1.59828884518452 -1.21923824532453
 1  15.42431341974197 -0.39977317551755 -1.02568946144614
 1  13.81410960516052  2.67584220332033 -0.26727851555155
 1  14.65081178147815  1.80195048424843  0.83738095199520
 1  16.45518717451745  1.36320493319332 -1.03892038273827
 1  15.33597918131813  2.03809772257226 -2.23983536323632
 1  15.30846225082508  4.15899127712771 -0.77832983108311
 1  16.32522529262927  3.50426706810681  0.32532243264326
 1  18.29684336573657  3.27161865306531 -1.11716079567957
 1  16.55358607900790  4.77158368726873 -3.19979233903390
 1  18.35136105960596  4.19147866116612 -3.23775838093809
 1  17.09102930313031  3.11287235723572 -3.17814584918492
 1  17.95288133533353  5.13330454795480  0.37426909110911
 1  18.83697121942194  5.65176932913291 -1.18083499789979
 1  17.13952550345034  5.97408691179118 -0.99073313461346
 1 -5.05971127252725 -8.11416084918492 -0.19934347204720
 1 -6.33471790209021 -6.75287237383738  0.61379488698870
 1 -4.76968513711371 -6.90795237083708  1.43655811241124
 8 -7.80066765836584  6.89691619241924 -0.52834061806181
 1 -9.05547384448445  6.40760640554055 -1.88860454325433

