%nproc=4
%Mem=4GB
# td=(NStates=1) iop(3/107=0140000000,3/108=0140000000) iop(3/107=0140000000,3/108=0140000000) CAM-B3LYP/6-31G(d,p) 

TD

0 1
12 -5.56223773037304  1.24973984828483  0.10967957315732
 6 -5.02607299449945 -2.06697516081608 -0.33815068186819
 6 -3.38402719181918  1.15390567536754  2.72948832213221
 6 -6.18292708840884  4.64734799899990  0.66922713151315
 6 -8.00165593269327  1.15481633233323 -2.37296496999700
 7 -4.31965621892189 -0.31761995379538  1.07760909970997
 6 -4.27798132563256 -1.61484518611861  0.67394974457446
 6 -3.27406053055306 -2.39418272107211  1.51546591029103
 6 -2.77924109510951 -1.40793368426843  2.62759931603160
 6 -3.55404283168317 -0.09480210791079  2.13899848504850
 6 -3.37382042144214 -1.74822826422642  4.01489418881888
 6 -2.11130632383238 -2.81754916421642  0.67633293879388
 6 -0.99778142164216 -3.58721630223022  1.35206879487949
 6  0.21973707420742 -3.95679952065207  0.48031622632263
 8  0.49223928822882 -3.44720203380338 -0.56047228142814
 8  1.03502034773477 -4.74504412171217  1.25226983428343
 7 -4.86851766806681  2.60866024292429  1.42064229592959
 6 -3.94268635843584  2.42590001170117  2.36073667696770
 6 -3.67797730143014  3.65740424262426  3.13183373957396
 6 -4.42164271697170  4.61780330863086  2.59097836913691
 6 -5.22129823402340  4.00568866406641  1.47739383168317
 6 -2.71104646774677  3.79649702550255  4.25076926632663
 6 -4.60783731433143  6.06920434093409  2.91734123892389
 8 -3.96248629662966  6.56916480448045  3.74766866676668
 7 -6.88787258715872  2.62326222202220 -0.71243289958996
 6 -6.93770648544854  3.96981659885989 -0.33925561426143
 6 -7.88612379877988  4.64364108890889 -1.20425453495350
 6 -8.43229268256826  3.68900583048305 -2.01355029942994
 6 -7.82033092359236  2.41785779457946 -1.72769871637164
 6 -8.36874986588659  6.00658056745675 -1.13111262006201
 6 -9.48894325762576  3.83347374557456 -3.22259689248925
 6 -8.91566302000200  4.02596074227423 -4.54081048504850
 7 -6.42086050505050 -0.04545956365637 -1.09658475047505
 6 -7.39376890649065 -0.02374844344434 -2.07610182088209
 6 -7.60969847704771 -1.38351005460546 -2.64039656225623
 6 -6.69195874467447 -2.23085265706571 -2.04437060276028
 6 -6.03681209660966 -1.37850141524152 -1.04449057945795
 6 -8.66559201700170 -1.65949607560756 -3.70954785098510
 6 -6.28201186828683 -3.53033861776178 -2.00646420152015
 8 -6.65206960246025 -4.52005970437044 -2.46836310141014
 6 -5.03786234833483 -3.43176122872287 -0.94182650245024
 6 -5.29724720212021 -4.51717715881588  0.03578725052505
 8 -5.87507327892789 -4.42808181628163  1.15086144954495
 8 -4.78659835803580 -5.72374357075708 -0.29490263486349
 6 -5.10191775597560 -6.87403925722572  0.53066489628963
 6  2.25497647084708 -5.17698881908191  0.54786874127413
 6  3.39864439943994 -4.23469363026303  0.96105400520052
 6  4.09534892509251 -3.55770864096410  0.08170180518052
 6  3.62604694359436 -3.25809075037504 -1.31959146364636
 6  5.16493291909191 -2.67130217781778  0.65071887068707
 6  6.55608047934793 -2.75259818501850  0.03577504490449
 6  7.66514183778378 -1.83983333883388  0.60679637013701
 6  9.00962178347835 -1.99255408900890  0.00340255775578
 6  9.60048643034303 -3.41760240064006  0.26088263056306
 6  10.01559213831383 -0.90494073147315  0.49732224772477
 6  11.39079638203820 -0.94288389528953 -0.21344011021102
 6  12.22049973857386  0.20003463096310  0.29615646324632
 6  13.55464792059206  0.43509837973797 -0.52711747494749
 6  14.63770206920692 -0.62563196579658 -0.35355950685069
 6  14.27731367096710  1.77752392399240 -0.15948520332033
 6  15.40731492189219  2.23623165136514 -0.99740473547355
 6  15.96098868326833  3.54493924672467 -0.60108072127213
 6  17.27119236833683  3.96308415001500 -1.36500043524352
 6  17.11777436713671  4.22673756545655 -2.86218844304430
 6  17.87798720482048  5.16067133243324 -0.73015247414741
 1 -2.63518924172417  1.26872114751475  3.47393786218622
 1 -6.39683766256626  5.84603998439844  0.85015400710071
 1 -8.72687309450945  0.93710401330133 -3.17501298009801
 1 -3.86232729752975 -3.14294961036104  1.87953601440144
 1 -1.82732985688569 -1.15370303190319  2.59275055115511
 1 -2.97512729182918 -2.59701286248625  4.44272781678168
 1 -3.37192798549855 -0.95204510891089  4.84691672147215
 1 -4.41292380408041 -2.14604368526853  3.96969091959196
 1 -2.43315862956296 -3.15730524782478 -0.14081470527053
 1 -1.60689852225223 -1.94659377567757  0.21765988758876
 1 -0.68885431893189 -3.10065136073607  2.31019523822382
 1 -1.37978269986999 -4.53220035123512  1.92991478947895
 1 -1.72513262706271  3.49593911831183  4.01352726242624
 1 -2.54245523562356  4.90272747874787  4.48473473117312
 1 -3.15352834783478  3.34996599409941  5.19020402640264
 1 -5.47015007890789  6.75204939933993  2.54970029142914
 1 -10.00567970147015  2.79297995509551 -3.30557380908091
 1 -10.11358215611561  4.59120296439644 -2.85932622332233
 1 -9.86764656445645  4.32478089208921 -5.10599580188019
 1 -8.24629413881388  4.84876462186219 -4.37880783578358
 1 -8.29401925092509  3.24118347714771 -4.79274919971997
 1 -8.72073966356636 -0.92353289618962 -4.43011400970097
 1 -8.37084806780678 -2.71356476157616 -4.31280391739174
 1 -9.61095117461746 -1.67131395479548 -3.19180608730873
 1 -4.30068742614261 -3.70591541814181 -1.67469075597560
 1  2.49621075407541 -6.11376931993199  0.93154911181118
 1  2.16983772717272 -5.12206918301830 -0.62874632423242
 1  3.84952707500750 -4.51239052085209  1.95684069166917
 1  2.34735972267227 -3.38928454955496 -1.45359790079008
 1  3.80221483478348 -2.21661522082208 -1.91270374087409
 1  4.14797697169717 -3.88613234243424 -1.97273619951995
 1  4.76053609450945 -1.54526095009501  0.58240012351235
 1  5.28321684898490 -2.72462409480948  1.81545642594259
 1  7.07215474217422 -3.78839203130313  0.11959984398440
 1  6.53359351975198 -2.71834944394439 -1.03144373987399
 1  7.33804273557356 -0.82555588068807  0.53244048954895
 1  7.78857095999600 -1.98486506960696  1.67939232453245
 1  8.81250535983598 -1.87132540774077 -1.00478381648165
 1  8.89295381408141 -4.17189596099610 -0.11390518291829
 1  10.48296763756376 -3.50470467256726 -0.30142025552555
 1  9.98416747814782 -3.46360745224522  1.22401284398440
 1  9.58691784238424  0.13694942114211  0.13098846264626
 1  10.04893499099910 -0.97294382828283  1.55814535453545
 1  11.82328747004700 -1.80291032293229 -0.30347472067207
 1  11.21545763246325 -0.87928083298330 -1.34594592819282
 1  11.83266429992999  1.19540396959696  0.58338878367837
 1  12.40959578287829  0.09198038943894  1.33722200240024
 1  13.41162796349635  0.59481391369137 -1.77956019471947
 1  14.82194153245324 -0.70365857855786  0.68203388338834
 1  14.12208777977798 -1.46854587088709 -0.68569489098910
 1  15.51002199059906 -0.44456765496550 -0.81971886438644
 1  13.64061225542554  2.64411903100310 -0.08596038373837
 1  14.62859956025603  1.57674796399640  0.77255446934693
 1  16.24052570837084  1.50994960766077 -0.74009049974997
 1  15.04453003640364  2.16594050685069 -2.16477785748575
 1  15.29178058265827  4.39103448144814 -0.81870386848685
 1  16.00176294639464  3.66662330373037  0.47466736713671
 1  18.01944562596260  3.15019651085109 -1.41397047664766
 1  16.33177389778978  5.16077260616062 -2.85892825262526
 1  17.88020394389439  4.48976849014902 -3.36129073417342
 1  16.64493469366937  3.30109117911791 -3.34693272787279
 1  18.10258630583058  5.06412763026303  0.34232589678968
 1  18.87546506880688  5.21429558175817 -1.21649856425643
 1  17.18705025592559  6.04286378947895 -0.74305836713671
 1 -4.99656495789579 -7.68614804790479 -0.28932246994699
 1 -6.14377880818082 -6.53362044864487  0.83874738223822
 1 -4.35551371997200 -6.86386796239624  1.45261971857186
 8 -7.99530712231223  6.96369287008701 -0.49380716471647
 1 -9.33847214431443  6.20992663756376 -1.73942962576258

