%nproc=4
%Mem=4GB
# td=(NStates=1) iop(3/107=0140000000,3/108=0140000000) iop(3/107=0140000000,3/108=0140000000) CAM-B3LYP/6-31G(d,p) 

TD

0 1
12 -5.60289179577958  1.26137101140114  0.17040564576458
 6 -5.00576096329633 -2.13774223752375 -0.35196206300630
 6 -3.35941473057306  1.29806009080908  2.81793716701670
 6 -6.10709950565056  4.60506377057706  0.62977318611861
 6 -7.92695846294629  1.23443429412941 -2.42672034553455
 7 -4.35211946524652 -0.24308250005001  1.00550188898890
 6 -4.21174470197020 -1.59440314191419  0.64548689828983
 6 -3.23200632513251 -2.31564486728673  1.56242060576058
 6 -2.94970814181418 -1.30317320822082  2.62692924902490
 6 -3.55113254065407  0.02153952625263  2.17717230243024
 6 -3.51715475487549 -1.62746618801880  3.99910260966097
 6 -1.98496368956896 -2.77691510081008  0.72917822332233
 6 -1.02885452895290 -3.60782836343634  1.51053464146415
 6  0.12267736823682 -3.95131897259726  0.70861905660566
 8  0.35238530283028 -3.53384069766977 -0.39129536373637
 8  0.99812665836584 -4.70791040834083  1.32388699599960
 7 -4.91670248654866  2.61939131603160  1.43839407110711
 6 -4.03811590139014  2.40524794649465  2.49572017531753
 6 -3.83320282398240  3.67052555475548  3.24345490169017
 6 -4.54949550225022  4.62177370567057  2.63310258155816
 6 -5.25639174337434  3.97048514371437  1.42636872917292
 6 -2.87382274537454  3.83356073187319  4.30349453885389
 6 -4.78284481508151  6.04188160866087  2.93904340914091
 8 -4.14237428542854  6.68038592659266  3.78929282918292
 7 -6.71798559845985  2.64209410521052 -0.77899955625563
 6 -6.88056077087709  3.95748536573657 -0.36757844654465
 6 -7.96302148854886  4.65946267106711 -1.19022313181318
 6 -8.36703615691569  3.74076100600060 -2.03523246764677
 6 -7.67550644114411  2.52747875667567 -1.81134708120812
 6 -8.28945193609361  6.04534444384439 -1.01620112891289
 6 -9.43912827612761  3.88244864306431 -3.09552418521852
 6 -8.91944339803980  3.96068421462146 -4.53054945894589
 7 -6.21244966396640 -0.15272028972897 -1.25058015001500
 6 -7.23354288388839 -0.04518058665867 -2.16900111081108
 6 -7.56116362356236 -1.27273897749775 -2.60840336293629
 6 -6.69852940174017 -2.19057862966297 -1.99980614631463
 6 -5.97685610101010 -1.31157472257226 -1.12814894529453
 6 -8.37092255005500 -1.54404453045305 -3.81307820402040
 6 -6.13861752885289 -3.56558214211421 -2.00084363946395
 8 -6.42220661616162 -4.54851254965497 -2.63871013611361
 6 -5.01120968306831 -3.58659671227123 -0.93990631043104
 6 -5.21643912131213 -4.80404584568457  0.03461713351335
 8 -5.60686645824582 -4.60196920502050  1.19735609900990
 8 -4.91325102330233 -5.93973516991699 -0.49099224382438
 6 -5.24798236243624 -7.01133298659866  0.43088491829183
 6  2.20103107630763 -5.09887100730073  0.67445139953995
 6  3.36675121012101 -4.08303846474647  1.06513441324132
 6  3.99171856205621 -3.30305317541754  0.16118975397540
 6  3.72627696659666 -3.22275721702170 -1.35787529202920
 6  5.11664809060906 -2.41675672327233  0.67309110791079
 6  6.46620149144915 -2.85936886208621  0.04301576897690
 6  7.63287861146115 -1.97139649514952  0.57306299679968
 6  9.02066288758876 -2.04220905450545 -0.10586836933693
 6  9.63768014971497 -3.41674231463146  0.04515105740574
 6  9.95779635873587 -0.93613385078508  0.43042555805581
 6  11.36777407980798 -0.89358896579658 -0.20636940314031
 6  12.15147283588359  0.25279990749075  0.18433528112811
 6  13.46526898269827  0.38725359525953 -0.67357212041204
 6  14.53166146514651 -0.74955435803580 -0.37618176907691
 6  14.09989592919292  1.86809298089809 -0.28889814461446
 6  15.36323051345135  2.04419244744474 -1.06464145914591
 6  16.04146673107311  3.53730848364836 -0.60718133133313
 6  17.25298054715472  3.98189603120312 -1.32216615181518
 6  17.05578816851685  4.11634652635264 -2.90786301050105
 6  17.93035244134413  5.18590385568557 -0.79936939583958
 1 -2.79226494929493  1.34173844924493  3.74842531093109
 1 -6.52395037383738  5.64300968136814  1.02251124282428
 1 -8.66319672687269  1.14579488238824 -3.21802728152815
 1 -3.70362142694269 -3.16538185358536  1.84321238203820
 1 -2.03898102200220 -1.22962062366237  2.90901217731773
 1 -3.03028280738074 -2.55605876707671  4.34769831383138
 1 -3.21253204590459 -0.96865677007701  4.76117814761476
 1 -4.65747825952595 -1.83947302820282  3.97478142864286
 1 -2.22049736343634 -3.30751026832683 -0.24725534933493
 1 -1.55916374877488 -1.76125524182418  0.53631175277528
 1 -0.81257669116912 -3.13538483408341  2.40625484418442
 1 -1.42914763636364 -4.52677980918092  1.95615741374137
 1 -1.78974908870887  3.65684520892089  3.84380028972897
 1 -2.92879386948695  4.91711891789179  4.66978323602360
 1 -3.11337433243324  3.23146414391439  5.23084809080908
 1 -5.55451851575157  6.49062325672567  2.40571589298930
 1 -9.94071320482048  2.94005466256626 -3.12311556325633
 1 -10.13734453235324  4.76134997909791 -2.86723701440144
 1 -9.69935973577358  4.03585199919992 -5.32894809710971
 1 -8.23233274267427  4.88553829922992 -4.44262421742174
 1 -8.18714856385638  3.15669502830283 -4.63328325312531
 1 -8.06615420502050 -1.04960550345034 -4.68182918121812
 1 -8.66527751075107 -2.64718812391239 -4.15362799979998
 1 -9.42157223672367 -1.24490131353135 -3.88343525022502
 1 -3.94586194359436 -3.90344517111711 -1.37934122102210
 1  2.48573970697070 -6.15668361136114  1.26320227712771
 1  2.00854159755976 -5.08345532163216 -0.28974242384238
 1  3.74560668296830 -4.13712299409941  2.11484649224922
 1  2.49533452015202 -3.42487810891089 -1.48494103510351
 1  3.70359497279728 -2.12288584788479 -1.68604107460746
 1  4.38597077107711 -3.72579630883088 -1.89543846974697
 1  5.11390143104310 -1.28566499049905  0.38166004950495
 1  5.15380390769077 -2.48619025142514  1.76726160646065
 1  6.40282780948095 -3.87558075017502  0.36729461346135
 1  6.34314447484748 -2.88294590359036 -1.12271286678668
 1  7.22310124142414 -0.94357768286829  0.55807305280528
 1  7.84395649854985 -2.22537912101210  1.57510189548955
 1  8.94984909420942 -1.93486176137614 -1.17183052115211
 1  9.15873039173917 -4.06560533193319 -0.25085887828783
 1  10.61981132193219 -3.50204440654065 -0.58250836433643
 1  10.06915597699770 -3.64800589208921  1.09020946364636
 1  9.50978012861286 -0.04317859165917  0.30537590139014
 1  10.01523162066207 -0.98655518941894  1.48843838383838
 1  11.88402354365437 -1.87043707560756 -0.12926729992999
 1  11.16720280698070 -0.69530243514351 -1.29427076067607
 1  11.84624565806581  1.49080350955096  0.02696314111411
 1  12.25632045534553  0.18415960736074  1.29989827002700
 1  13.32646944764477  0.50148458075808 -1.69313155185519
 1  14.84150348864886 -0.79956816951695  0.71137681768177
 1  13.81110668166817 -1.57151616791679 -0.64180050155015
 1  15.38304929332933 -0.73246644484448 -0.95680257275728
 1  13.59506770097010  2.87267188628863 -0.80965275297530
 1  14.19240594089409  1.96235652485249  0.90530774467447
 1  16.01394305010501  1.36959557225723 -0.71094758545855
 1  15.39311489488949  2.07403131593159 -2.14367574727473
 1  15.14092549714971  4.23793917191719 -0.63011500960096
 1  16.16481925202520  3.52775941734173  0.59643954435444
 1  18.06510019141914  3.40232172337234 -1.27835691529153
 1  16.48885960636063  5.12866939583958 -3.05182754255426
 1  18.19923584708471  4.22729224252425 -3.30296490159016
 1  16.59014921512151  3.24379544954495 -3.49361739633963
 1  18.07002304950495  5.09111032853285  0.26340800500050
 1  18.87743526582658  5.52351650385039 -1.10142705710571
 1  17.18560011091109  6.00836033913391 -0.65391945324532
 1 -5.27797309870987 -7.88581801490149 -0.33148668636864
 1 -6.30240467076708 -6.93015010161016  1.01039454695470
 1 -4.48078624722472 -7.22693426902690  1.09666412301230
 8 -7.82280987258726  6.88441494229423 -0.33251103510351
 1 -8.92368066516652  6.52953859875988 -1.92071775457546

