%nproc=4
%Mem=4GB
# td=(NStates=1) iop(3/107=0140000000,3/108=0140000000) iop(3/107=0140000000,3/108=0140000000) CAM-B3LYP/6-31G(d,p) 

TD

0 1
12 -5.61644315091509  1.20911578587859  0.20156876207621
 6 -5.01845223242324 -2.20073853715372 -0.45521238803880
 6 -3.32820160926093  1.18397868266827  2.66365173847385
 6 -6.20598939463946  4.47308057225723  0.63747395619562
 6 -8.01811757885789  1.18731958265827 -2.43257093059306
 7 -4.35921017431743 -0.27845603740374  0.96085742454245
 6 -4.24624815231523 -1.65723942554255  0.60574292389239
 6 -3.23910703520352 -2.39719302210221  1.46896125982598
 6 -3.00435360636064 -1.35312820372037  2.58701525762576
 6 -3.57293472087209 -0.02651527922792  2.11555614081408
 6 -3.53385642504250 -1.79199264066407  3.94266696609661
 6 -1.90978617181718 -2.63375078437844  0.61906721222122
 6 -0.95557720122012 -3.53151073167317  1.38352194019402
 6  0.26234133463346 -3.89903374407441  0.51783997869787
 8  0.48521858615862 -3.48084539813981 -0.60149638383838
 8  1.20952779847985 -4.61729134643464  1.19584419171917
 7 -4.91069188548855  2.59385876277628  1.47368760046005
 6 -3.91657374717472  2.50141756345635  2.42195279857986
 6 -3.67335683938394  3.65805430763076  3.11044160036004
 6 -4.49240979367937  4.61020254855486  2.52102137343734
 6 -5.23412951715171  3.89140723592359  1.52515860816082
 6 -2.88085344844484  3.87329470527053  4.28608279767977
 6 -4.70542707330733  5.90406782728273  2.91648115291529
 8 -4.19238928692869  6.55772366036604  3.89247314721472
 7 -6.90681448134814  2.51692158795880 -0.64277593389339
 6 -6.95983869866987  3.82450206740674 -0.31151283998400
 6 -7.91634682108211  4.57989471427143 -1.18907301680168
 6 -8.53781323462346  3.66998392829283 -2.01734067846785
 6 -7.84512340284028  2.40738674747475 -1.71550749724973
 6 -8.19398238913891  6.02986289568957 -1.19497900670067
 6 -9.42216657995800  3.82936333453345 -3.16163079587959
 6 -8.86367782148215  4.20918906510651 -4.60230663466347
 7 -6.47083550255025 -0.15069008670867 -1.05329042104210
 6 -7.47089661926193 -0.01021709030903 -2.07906211691169
 6 -7.61103861106111 -1.38705040864086 -2.69483200580058
 6 -6.61162071087109 -2.23638321012101 -2.07983414911491
 6 -6.03988240364036 -1.49019258435844 -1.01868799919992
 6 -8.44304976277628 -1.80586071207121 -3.75119201540154
 6 -6.15464913201320 -3.51180676457646 -2.01442499759976
 8 -6.47369176467647 -4.45388308670867 -2.66693295839584
 6 -5.08655721782178 -3.52930098269827 -0.82074439423942
 6 -5.49058653605360 -4.57348278937894  0.28253192499250
 8 -5.98105387698770 -4.35210421852185  1.39209557295730
 8 -5.18090778897890 -5.77701889828983 -0.22662580718072
 6 -5.62254981918192 -6.87790964426443  0.65714754455446
 6  2.39442041524152 -5.04217533773377  0.55397935233523
 6  3.53079761476148 -4.19657981888189  0.99305720552055
 6  4.17953734393439 -3.37456032613261  0.18003163816382
 6  3.71462580148015 -3.16651159245925 -1.29061856635664
 6  5.23511993779378 -2.51237628522852  0.64550834963496
 6  6.62695756705671 -2.70713363856386  0.00199166656666
 6  7.70775609920992 -1.78083743924392  0.52851854235424
 6  9.06607742904290 -1.91924675827583 -0.12703048554855
 6  9.67373375507551 -3.33661430183018 -0.09208266596660
 6  9.90609118821882 -0.79879011641164  0.40127264276428
 6  11.32047935033503 -0.80647025392539 -0.19722848904890
 6  12.23020070867087  0.35840046754675  0.16067291489149
 6  13.52600505630563  0.50091496139614 -0.53663842704270
 6  14.44388268726873 -0.81368077067707 -0.28939309020902
 6  14.27057299689969  1.80402657425743 -0.17213646844684
 6  15.50260445084508  2.10195822402240 -0.99544453945395
 6  16.12448503290329  3.44398915171517 -0.51674228742874
 6  17.41733698279828  3.87287512911291 -1.29797373257326
 6  17.26981957165717  4.11122601430143 -2.82940516471647
 6  18.00685009110911  5.13855912121212 -0.79630908980898
 1 -2.75624134693469  1.06280055545555  3.60516098449845
 1 -6.24931291009101  5.53596897729773  0.62455144684468
 1 -8.89445985318532  1.09696999989999 -3.09629510831083
 1 -3.55444650945094 -3.53363867926793  1.73408146894689
 1 -1.99697682158216 -1.32718037963796  2.65322659875988
 1 -2.67499727882788 -2.56076923812381  4.26106965096510
 1 -3.40225101780178 -0.83679358375838  4.77554958475848
 1 -4.52673518521852 -2.16970605150515  4.05175912641264
 1 -2.13465877957796 -3.00353987128713 -0.39955057885789
 1 -1.53423125552555 -1.63777289358936  0.46431455305531
 1 -0.46536196969697 -3.03483477907791  2.28152237093709
 1 -1.63980870247025 -4.55211234243424  1.78823062106211
 1 -1.79584969876988  3.40938046244624  4.14739064876488
 1 -2.69326031613161  5.06368357435744  4.61681793949395
 1 -3.33231622662266  3.31283228072807  5.19949495549555
 1 -5.27330039393939  6.54687888228823  2.38183350475048
 1 -10.12842197569757  2.97690834793479 -3.31856510821082
 1 -10.29011980988099  4.49707355145515 -2.49592988368837
 1 -9.59052885268527  4.34197261126113 -5.39522472477248
 1 -8.35209471887189  5.22846259165917 -4.47553750875088
 1 -8.06130597959796  3.46118547734773 -4.77450737553755
 1 -8.28496608620862 -0.98256879977998 -4.59775077337734
 1 -8.28438942194219 -2.82849625472547 -4.31744438143814
 1 -9.57342742224223 -1.60766759015902 -3.67897480418042
 1 -4.22352971037104 -3.93103793039304 -1.44706799369937
 1  2.52138327132713 -6.11869981298130  1.04017997489749
 1  2.06886763016302 -5.18112508860886 -0.56093954355436
 1  3.85271739403940 -4.57059634143414  2.10506551415142
 1  2.77097208390839 -3.45674129522952 -1.51080362136214
 1  3.72873748704870 -1.99904346364636 -1.49602207270727
 1  4.29416159015902 -3.51147487668767 -2.05452437833783
 1  4.74177421832183 -1.46711313531353  0.74852673617362
 1  5.25474400170017 -2.67926955935594  1.77459233953395
 1  6.87482500920092 -3.72111530363036  0.17209509350935
 1  6.12244240464046 -2.69994760376038 -0.98261885738574
 1  7.39286821812181 -0.82098542364236  0.48053529902990
 1  7.78800090299030 -1.91448803190319  1.68771315661566
 1  9.13509761906191 -1.88609688488849 -1.31806514461446
 1  8.93390790949095 -4.05053382478248 -0.54126791919192
 1  10.63984332513251 -3.32641684378438 -0.62917303080308
 1  9.87835689708971 -3.75371646314631  0.86799724242424
 1  9.32759190979098  0.08790451665167  0.33430879467947
 1  10.13232332983298 -0.93993052695270  1.43273281328133
 1  11.93654879617962 -1.65565559745975  0.26258188498850
 1  11.34778086478648 -0.75585849074907 -1.47819915351535
 1  11.73175420892089  1.31433586278628  0.06772721752175
 1  12.43628845214521  0.08475966736674  1.20945922612261
 1  13.56142294299430  0.55707013931393 -1.57571981068107
 1  14.73598293659366 -0.87522573527353  0.84804048404841
 1  13.66085165616562 -1.57155617191719 -0.43661998349835
 1  15.40595158355836 -0.99329252745275 -0.72971986448645
 1  13.62768096229623  2.73416803590359 -0.05221700940094
 1  14.50310701100110  1.86134642384238  0.92772998689869
 1  16.15618727452745  1.28384699739974 -0.82920941164116
 1  15.20631621502150  2.20833474627463 -1.84792617231723
 1  15.65186659125913  4.27867324532453 -0.69896189428943
 1  16.38704147424743  3.30482712411241  0.42798269866987
 1  18.40253393479348  3.23745523672367 -1.37552663226323
 1  16.67148786918692  5.17616414531453 -2.87587994779478
 1  18.16658258175818  4.55161467476748 -3.20182478757876
 1  16.80372057225723  3.26357742774277 -3.33226126072607
 1  18.04448049524952  5.20397161466147  0.23328499269927
 1  19.10569809210921  5.33880803300330 -0.96660357475748
 1  17.66943849474947  6.16093559665967 -1.27058111941194
 1 -5.31201650305031 -7.64347378047805 -0.04369790749075
 1 -6.66602103240324 -6.87342442904290  0.81842535003500
 1 -4.97028519711971 -6.77697927352735  1.60039449604960
 8 -7.83047063866387  6.90573707450745 -0.45445322932293
 1 -8.96972526962696  6.30948659355936 -2.09332501530153

