%nproc=4
%Mem=4GB
# td=(NStates=1) iop(3/107=0140000000,3/108=0140000000) iop(3/107=0140000000,3/108=0140000000) CAM-B3LYP/6-31G(d,p) 

TD

0 1
12 -5.61985349194919  1.25244011831183  0.21516012121212
 6 -4.94460484768477 -2.07834629792979 -0.36437330413041
 6 -3.50852964206421  1.20154043884388  2.88877425072507
 6 -6.15276407210721  4.60057332153215  0.59433964276428
 6 -7.94236000310031  1.22322317301730 -2.40752842634263
 7 -4.43014726802680 -0.28350654245425  1.13497483628363
 6 -4.21117464496450 -1.66975067666767  0.66011836143614
 6 -3.18065118961896 -2.36290959375938  1.49929429312931
 6 -2.95019819081908 -1.30273316421642  2.63838039413941
 6 -3.67680510791079 -0.02848547624762  2.15028961416142
 6 -3.53574661406141 -1.75937937933793  4.01757445684568
 6 -2.02572776597660 -2.72669007830783  0.71627693319332
 6 -0.89574121762176 -3.54734231483148  1.39406299429943
 6  0.26789188968897 -3.98715255595560  0.64435262996300
 8  0.54677474177418 -3.76079339293929 -0.49006524072407
 8  1.05685253095310 -4.87326694399440  1.34632924022402
 7 -4.96683750005000  2.61661103800380  1.46365659735974
 6 -3.99534162396240  2.46252367406741  2.47171777507751
 6 -3.84998450215021  3.74101260346035  3.20936149234923
 6 -4.55153570627063  4.69614114241424  2.55865513681368
 6 -5.20498660286029  3.97816591179118  1.48640473277328
 6 -2.85388075117512  3.84790216601660  4.34749893929393
 6 -4.70687721832183  6.02112953345334  3.03966347114711
 8 -4.12347239523952  6.63488137613761  3.90704460436044
 7 -6.75899969986999  2.71100099589959 -0.83089474577458
 6 -6.93207592239224  4.01434105130513 -0.42962465116512
 6 -7.97348253465347  4.64090081488149 -1.24435854535454
 6 -8.41274072737274  3.63539046894689 -2.09496844124412
 6 -7.70342923342334  2.41653766256626 -1.80085603210321
 6 -8.33640663156316  5.95989589898990 -1.14517402620262
 6 -9.38734309760976  3.79119951815181 -3.19727436023602
 6 -8.78863031673167  4.13161130733073 -4.54619102310231
 7 -6.33585200420042 -0.10032505020502 -1.12728782078208
 6 -7.35585511511151  0.04865879727973 -1.99094330503050
 6 -7.56544405160516 -1.33653535713571 -2.71092361496150
 6 -6.57107665646565 -2.15578515031503 -2.03484965066507
 6 -5.91335975137514 -1.40348391349135 -1.02631876227623
 6 -8.42311776957696 -1.67719784578458 -3.78086498269827
 6 -6.22920658775878 -3.58221380528053 -1.99953350845085
 8 -6.56032042754275 -4.49624732313231 -2.69234549964996
 6 -4.95935449754976 -3.49622767536754 -0.92223454325433
 6 -5.19612709010901 -4.62528796989699  0.14219789158916
 8 -5.70587635923592 -4.39250825892589  1.24072043544354
 8 -4.96976667486749 -5.87152834923492 -0.27118026262626
 6 -5.33840140434043 -6.94057591089109  0.58677050685069
 6  2.34194516771677 -5.18407952815282  0.75422937733773
 6  3.39840437543754 -4.03105326622662  0.98509640944094
 6  4.00143953415342 -3.31702457255726  0.04247788278828
 6  3.68138247714771 -3.35183012431243 -1.43599310381038
 6  5.12555898169817 -2.33042809040904  0.58119191799180
 6  6.45417028832883 -2.66646957215722 -0.10310884348435
 6  7.66905222882288 -1.79716907240724  0.46706239673967
 6  8.96055687698770 -1.98551338493849 -0.30833861636164
 6  9.49639602130213 -3.40420106050605 -0.09189264696470
 6  9.90523110221022 -0.87960819821982  0.27287980348035
 6  11.35405270767077 -0.85258486538654 -0.43691245744574
 6  12.22674036263626  0.19088371587159  0.26780362796280
 6  13.53065552135213  0.37568243814381 -0.47274203740374
 6  14.54541284028403 -0.72822222482248 -0.14307845874587
 6  14.19168510811081  1.76957312891289 -0.02828208300830
 6  15.47225141554155  2.12666069426943 -0.92812780778078
 6  16.10057264166417  3.50426517931793 -0.61120173337334
 6  17.32577782688269  3.96081392299230 -1.38831276647665
 6  17.17321991169117  4.04909980168017 -2.90145236943694
 6  17.76423582968297  5.27322258755876 -0.72886234513451
 1 -2.90446616941694  1.33026730213021  3.75966643504350
 1 -6.33680165896590  5.65281066146615  0.72358134983498
 1 -8.50941134833483  1.26807711061106 -3.17875335413541
 1 -3.66317738253825 -3.28378369376938  1.93534159495950
 1 -1.87733485738574 -1.10045770737074  2.56559783588359
 1 -2.97011679077908 -2.67782094329433  4.17148069206921
 1 -3.44000479317932 -1.07669757415742  4.86119814961496
 1 -4.60547305900590 -2.22044112501250  4.07133108360836
 1 -2.51518683238324 -3.26093561086109 -0.12526315011501
 1 -1.45279311171117 -1.90476959325933  0.36517463906391
 1 -0.58136356985699 -3.07998929452945  2.30309452815282
 1 -1.39644436603660 -4.61563869506951  1.84637643564357
 1 -1.88912902670267  3.38391791619162  3.95710161986199
 1 -2.94089507960796  4.93866107210721  4.34744100180018
 1 -2.98161115611561  3.30139113661366  5.11614662066207
 1 -5.42987605150515  6.71613580798080  2.51859718111811
 1 -10.04336346984698  2.97976863396340 -3.41002425412541
 1 -10.17393819171917  4.44990883498350 -2.92244253495350
 1 -9.60831063086309  4.09445785978598 -5.34842004430443
 1 -8.31830133953395  5.14040378577858 -4.35645560056006
 1 -7.83398324732473  3.44451381018102 -4.85565549034903
 1 -8.52537012661266 -1.10635117801780 -4.60307130543054
 1 -8.40949193219322 -2.89626303140314 -3.97518015501550
 1 -9.50053013251325 -1.62900972437244 -3.62414932163216
 1 -4.08510586798680 -3.79940476707671 -1.43705699259926
 1  2.65534666766677 -6.18052599559956  1.32082803970397
 1  2.23762450585058 -5.46024300040004 -0.35973942354235
 1  3.54344646694669 -3.72627190899090  2.05697070467047
 1  2.59593458015802 -3.71226684778478 -1.67001954295429
 1  4.13871848514852 -2.32735629492949 -1.89359182968297
 1  4.24241641564156 -4.17972170137014 -1.86395532143214
 1  4.98360840174017 -1.19982640664066  0.46136802030203
 1  5.20671919921992 -2.28716034843484  1.66889176947695
 1  6.70597812451245 -3.74250744284428 -0.21003311931193
 1  6.11002116251625 -2.39417702670267 -1.19588018351835
 1  7.29746867816782 -0.67682100720072  0.40957820332033
 1  7.81234333723372 -1.86057264036404  1.49145353065307
 1  8.93971808110811 -1.75929420462046 -1.35293863196320
 1  8.87077159585959 -4.18936770817082 -0.48157194959496
 1  10.55938527932793 -3.57652185428543 -0.56365647914792
 1  9.75324438583858 -3.46771786328633  0.93108355105511
 1  9.24190334093409  0.18367409360936  0.36525188898890
 1  10.38327842534253 -1.11186772067207  1.35207474747475
 1  11.91097623892389 -1.81938197009701 -0.27199157235724
 1  11.32961904860486 -0.67304020892089 -1.70581191479148
 1  11.79991102460246  1.13089751895189  0.23806425122512
 1  12.38167299059906 -0.06938574717472  1.35789406960696
 1  13.48054485518552  0.27414184648465 -1.63095533423342
 1  15.08448778707871 -0.69860807350735  0.87833351335134
 1  14.15393096409641 -1.78992800910091 -0.25965228672867
 1  15.27672866126613 -0.63232643084308 -0.89468636113611
 1  13.39927812201220  2.54610923002300 -0.18117990569057
 1  14.53645034533453  1.72326261546155  1.00639785368537
 1  16.26171782758276  1.18113672637264 -0.51295778647865
 1  15.17341292469247  2.05778969176918 -2.03820520022002
 1  15.33680508510851  4.40418579657966 -0.78029002710271
 1  16.26379915001500  3.47726436783678  0.38202810321032
 1  18.21010469186919  3.37865935713571 -1.15228430803080
 1  16.48212893329333  4.82725925482548 -3.05944830463046
 1  18.09030495399540  4.34327384068407 -3.46224082918292
 1  16.94986518671867  3.20800187018702 -3.18815685028503
 1  18.07751379857985  5.18261947944795  0.31816348054805
 1  18.66065358765877  5.59357350955095 -1.03029994439444
 1  16.98592014291429  5.88548805190519 -0.95565962726273
 1 -5.12856815821582 -7.87012644574457 -0.21646518421842
 1 -6.32998742904291 -6.73908099469947  0.60049355685569
 1 -4.98938710731073 -6.84727630323032  1.58107256385639
 8 -7.85314290589059  6.83453995479548 -0.42272005600560
 1 -9.47850614771477  6.22721836673667 -1.54359004180418

