%nproc=4
%Mem=2GB
# td=(NStates=1) iop(3/107=0140000000,3/108=0140000000) iop(3/107=0140000000,3/108=0140000000) CAM-B3LYP/6-31G(d,p) 

TD

0 1
12 -6.73642621472147  0.55865500960096 -0.07271965246525
 6 -4.59734684118412 -2.14196261806181  0.44443472047205
 6 -4.41589340474047  2.64415604870487  1.09228210981098
 6 -8.79582228692869  3.17716174027403 -0.39565906760676
 6 -9.35576367396740 -1.77555058465847 -0.90115017371737
 7 -4.72007707960796  0.24107350505050  0.61453048514851
 6 -3.92684995059506 -0.91828153495350  0.66716727212721
 6 -2.58036145474547 -0.67706946614661  1.11934399669967
 6 -2.78105807160716  0.73211336013601  1.54339650215022
 6 -4.05329159205921  1.30512059725973  1.09739451415142
 6 -2.75494177987799  0.95288708460846  2.94201876467647
 6 -1.62935168356836 -1.14302686608661 -0.01961063476348
 6 -0.07906602490249 -0.93645535213521  0.45819489298930
 6  0.84527560676068 -0.91363860076008 -0.54993316711671
 8  0.83051311941194 -0.32059467196720 -1.67003799399940
 8  1.91849213581358 -1.79400969956996 -0.17140206270627
 7 -6.68033977617762  2.53749411941194  0.31233498139814
 6 -5.53427398829883  3.16471511471147  0.68631492769277
 6 -5.96634084928493  4.57918760356036  0.82780764936494
 6 -7.18975968936894  4.85440153065307  0.44409099239924
 6 -7.79750145404540  3.47361617001700  0.03916874827483
 6 -4.93651857215722  5.54328175867587  1.50723839183918
 6 -7.92069363066307  6.05872279237924  0.16171569526953
 8 -7.51957587378738  7.17224884148415  0.51076893369337
 7 -8.83998755225523  0.73025388458846 -0.37168981808181
 6 -9.52368604100410  1.84193892919292 -0.52279333163316
 6 -10.78370500080008  1.65760563166317 -1.02616839803980
 6 -10.80072442994299  0.36028693309331 -1.12424327982798
 6 -9.60463212651265 -0.38177634083408 -0.84569664636464
 6 -11.82992976827683  2.51871806490649 -1.22196684748475
 6 -11.97311043154315 -0.37616117841784 -1.58156629032903
 6 -11.84057091919192 -0.98220038523852 -2.96517931263126
 7 -7.04882136503650 -1.39446200750075 -0.26902954745474
 6 -8.10670333193319 -2.18107810451045 -0.63357655565557
 6 -7.70993857895790 -3.54114143654365 -0.67383839393939
 6 -6.33819944114411 -3.64069323022302 -0.40835909650965
 6 -5.93337962666267 -2.28062687718772  0.05339152345235
 6 -8.33233175667567 -4.85359273707371 -0.84028684458446
 6 -5.09858606310631 -4.42700849894990  0.10545857155716
 8 -4.95604735343534 -5.68267880618062  0.09391989858986
 6 -3.95737946334633 -3.45191575077508  0.53191783898390
 6 -3.43215672657266 -3.77952412791279  1.89693940694069
 8 -4.20036527662766 -4.23599033383338  2.85921459125913
 8 -1.96500817571757 -3.50707701300130  1.87697763696370
 6 -1.13224174627463 -3.79627471757176  3.17164158935894
 6  3.04369626242624 -2.06657183408341 -0.86593783788379
 6  4.21305507290729 -1.15373237433743 -0.47863339563956
 6  5.18034879027903 -0.80491736313631 -1.46899310091009
 6  5.09459344314431 -1.41669480418042 -2.77347432963296
 6  6.19246307090709  0.25289763686369 -1.04373093159316
 6  7.51078977297730 -0.59426520862086 -0.73613035033503
 6  8.63651621192119  0.42442807740774 -0.45632411291129
 6  9.84311740114011 -0.44853177347735  0.26318801310131
 6  9.68193570987099 -1.09496831153115  1.56356072487249
 6  10.92279460946095  0.65618047224722  0.23126796519652
 6  12.30811608210821 -0.01495018781878  0.14288259945995
 6  13.36638818141814  0.95054232893289  0.32010490889089
 6  14.80470680588059  0.20228350645065  0.46203086518652
 6  15.00553554165417 -0.62601488198820  1.83883380738074
 6  15.96316594499450  1.20462536453645  0.21365457075708
 6  17.38543802190219  0.63433865826583 -0.06595346924692
 6  18.58323787118712  1.71640883208321 -0.39912005880588
 6  19.96274847594760  1.07161565636564 -1.09989007270727
 6  19.61172097339734  0.63592902320232 -2.61483727492749
 6  20.93358052695270  2.13433485148515 -0.94520961686169
 1 -3.61627226552655  3.43624487548755  1.46948635033503
 1 -9.72143612611261  3.74386347144715 -0.71860549444945
 1 -9.69246173777378 -2.34044444374437 -1.43449627552755
 1 -2.13457597439744 -1.28454607240724  2.05502555085509
 1 -1.77798713731373  1.14130460666067  1.10803725712571
 1 -1.99453083678368  0.39196751115111  3.50368107920792
 1 -2.86634480838084  1.84286286268627  3.63327944574457
 1 -3.57587992049205  0.52419030433043  3.66722259135914
 1 -1.70888990929093 -2.22572384538454 -0.39915770257026
 1 -1.46206137513751 -0.60822229512951 -1.05340513131313
 1 -0.07050905260526 -0.08402983628363  1.24942080728073
 1  0.02733901410141 -1.62910924472447  1.25745597769777
 1 -3.67318184858486  5.52899072697270  1.01538649634964
 1 -5.54146442704270  6.41064374027403  1.43629053515352
 1 -4.58166919511951  5.19597855885589  2.67910568286829
 1 -8.89018203230323  5.71833694289429 -0.38936531233123
 1 -11.95881543514351 -1.20270113761376 -0.80632505970597
 1 -13.05107132213221  0.37165356515652 -1.40649828622862
 1 -12.87179500260026 -1.41449356475648 -3.53624074117412
 1 -11.86326329012901 -0.23697627612761 -3.63240541004100
 1 -10.98414523892389 -1.50590390739074 -2.97227383478348
 1 -9.48771795509551 -4.58100465606561 -1.46366859485949
 1 -7.43963917851785 -5.43265327792779 -1.50774042594259
 1 -8.88141542154215 -5.26950891209121  0.47944255375538
 1 -2.91994157555756 -3.23490721562156  0.07867956115612
 1  3.30252186758676 -3.10832810661066 -0.38897461456146
 1  2.94850913971397 -2.31595751075108 -1.84228446374638
 1  4.19601692939294 -0.37422017041704  0.19777337893789
 1  4.16758981598160 -1.07609108160816 -3.25787590259026
 1  5.77090066846685 -1.35537421282128 -3.28399962386239
 1  4.77006083348335 -2.29825243954395 -3.01038522232223
 1  5.99371979387939  0.68792412981298 -1.97419003620362
 1  5.95401051045104  0.82831837963796 -0.55047931133113
 1  6.92243342224222 -1.11285948304830  0.15485720732073
 1  7.63631903030303 -1.33285207550755 -1.55434491039104
 1  8.70318244964496  1.16638723352335 -1.46216900220022
 1  8.44489298739874  1.05554074227423  0.39603531193119
 1  9.98807125422542 -1.26263370707071 -0.34363152075207
 1  8.95042728702870 -2.31603041874187  1.69717807860786
 1  10.75953202260226 -1.34868875007501  2.10764265566557
 1  9.67635084668467 -0.47235845824582  2.35357666276628
 1  11.12047568536854  1.54115687558756 -0.71736890849085
 1  10.63629337593759  1.38484736033603  1.22899677997800
 1  12.55206274847485 -0.74909734923492  0.87991167446745
 1  12.88540069406941 -0.56733495409541 -0.77546054355436
 1  13.21247611761176  1.80091963696370 -0.57675658025802
 1  13.21587363216322  1.64856910821082  1.19619540894089
 1  14.56295772157216 -0.66277379337934 -0.48463665486549
 1  15.04302420232023  0.07014741024102  2.54403717671767
 1  14.15578285178518 -1.32898056995700  2.13622112021202
 1  15.73960099319932 -0.88303188628863  1.94278075577558
 1  15.57665880078008  2.05318531193119 -0.52070204490449
 1  16.22822685528553  1.72091162666267  1.08437676087609
 1  17.80243155825583  0.16352952355236  0.54809499619962
 1  17.33651117531753  0.32628079727973 -0.86643802120212
 1  18.24478948604861  2.47457400520052 -1.12727571587159
 1  18.64371436753676  2.41091499839984  0.52147881838184
 1  20.48915147634764  0.29124197039704 -0.66274292349235
 1  19.57391570957095  1.67553260286029 -3.29012113731373
 1  20.59176346634663 -0.14543634543454 -3.15841997539754
 1  18.53455618261826 -0.07755547394739 -2.71076915161516
 1  20.51242802140214  2.55463504260426  0.12316306990699
 1  22.13213095339534  1.40017660036004 -0.88860157515752
 1  21.09273592649265  3.33770125732573 -1.79140393669367
 1 -0.18450407550755 -3.74121687108711  2.71935028302830
 1 -1.20755043604360 -4.72599987368737  3.38964960156016
 1 -1.55242925622562 -3.29435791289129  4.04727888108811
 8 -11.61709008330833  3.84260906010601 -1.17419923362336
 1 -12.77075758725873  2.27496873697370 -1.34226483148315

