%nproc=4
%Mem=2GB
# td=(NStates=1) iop(3/107=0140000000,3/108=0140000000) iop(3/107=0140000000,3/108=0140000000) CAM-B3LYP/6-31G(d,p) 

TD

0 1
12 -6.74483705580558  0.58507765186519  0.08718633813381
 6 -4.37442454895490 -2.02049047084708  0.37209748674868
 6 -4.10212202760276  2.78960059315932  0.81261414301430
 6 -8.88508121282128  3.19083310741074 -0.15123462516252
 6 -9.26645474307431 -1.73126615621562 -0.75827588628863
 7 -4.75779085098510  0.36011540924092  0.60911994409441
 6 -3.91766903250325 -0.85586529332933  0.59767032243224
 6 -2.56823024162416 -0.62982474167417  0.96410847314732
 6 -2.36001596739674  0.81374152295229  1.23685584808481
 6 -3.84123038593859  1.32850293549355  0.88341311601160
 6 -1.93298958465847  1.38636043194319  2.69871443424342
 6 -1.60413916231623 -1.01250381378138 -0.19007768146815
 6 -0.18024614291429 -1.08731043764376  0.41019009250925
 6  0.79771085028503 -1.24545178207821 -0.66709488328833
 8  0.70593066116612 -0.81286389888989 -1.72792378257826
 8  1.73479376597660 -2.01131142974297 -0.26923184568457
 7 -6.39788153035304  2.55304567456746  0.28158190609061
 6 -5.35162572347235  3.34419306250625  0.64816111231123
 6 -5.78051226642664  4.80907059185919  0.72166703530353
 6 -7.00662137553755  4.88184427492749  0.20301688498850
 6 -7.44862656655666  3.48682749114911  0.01025585698570
 6 -4.74342926322632  5.80232766326633  1.12380004800480
 6 -7.70560212151215  6.01025794589459  0.04481400510051
 8 -7.35492940914091  7.16419803640364  0.22481033783378
 7 -8.71480503400340  0.70907176637664 -0.32704535363536
 6 -9.29818349074908  1.84131886718672 -0.31036208850885
 6 -10.75018164846485  1.44268413951395 -0.74265004620462
 6 -10.98086244374437  0.15352625702570 -0.71727258275828
 6 -9.67356902020202 -0.42425058825883 -0.50465254195420
 6 -11.81814859015901  2.55821201430143 -1.02417706850685
 6 -12.13873699419942 -0.61929549184919 -0.95995412911291
 6 -12.37621448354836 -0.68482064726473 -2.37468026272627
 7 -6.73544002690269 -1.38343090439044 -0.10650329482948
 6 -7.91713437503750 -2.23881387808781 -0.50625382338234
 6 -7.50215780088009 -3.49553687608761 -0.57904891499150
 6 -6.18445406660666 -3.43505266616662 -0.26911517211721
 6 -5.65641192989299 -2.13974278877888 -0.00910472617262
 6 -8.20548907240724 -4.74496187398740 -0.91521433733373
 6 -5.02330853535354 -4.33472927102710  0.10718874457446
 8 -4.92317406610661 -5.54085462376238  0.07751825842584
 6 -3.87584130953095 -3.44380493969397  0.47866251345135
 6 -3.29054256515652 -3.70239641514151  1.87690740374037
 8 -3.95055029512951 -4.08921565636564  2.80497916771677
 8 -1.90806248114812 -3.65422172747275  1.74944488368837
 6 -1.11587010911091 -3.89621471157116  3.06891131633163
 6  2.87982987578758 -2.41238641554155 -1.18089933403340
 6  3.94831859925993 -1.54972197329733 -0.82973850615062
 6  4.85803655905590 -1.11198807020702 -1.87550375197520
 6  4.98698268206821 -1.66034916961696 -3.27221420362036
 6  5.95559938453845 -0.03275092799280 -1.42486904540454
 6  7.27625631963196 -0.69205498759876 -1.09369610691069
 6  8.26297885818582  0.13076871147115 -0.55636411691169
 6  9.59257234663466 -0.55751267156716 -0.11117942364236
 6  9.39808732503250 -1.17375619031903  1.27660202900290
 6  10.68872120212021  0.48206306050605  0.00989582798280
 6  12.07391266176618 -0.08976766956696  0.06595490669067
 6  13.25437698029803  0.95928320302030  0.02852575097510
 6  14.74049038423843  0.34237751585159  0.38442310441044
 6  14.83849883798380 -0.22460474097410  1.89728965296530
 6  15.75904553295330  1.48593349534953  0.20531373667367
 6  17.04871434953495  0.84652987738774  0.02322544864486
 6  18.12820236763676  2.01288848004800 -0.22655280208021
 6  19.58181038213822  1.36008450325033 -0.23488357205721
 6  19.84959476077608  0.35278070837084 -1.40037582878288
 6  20.71303847274728  2.51700311831183 -0.13263835973597
 1 -3.50820145844584  3.57840909190919  1.07330673237324
 1 -9.67834181668167  3.89194827992799 -0.11822545644564
 1 -10.28769126072607 -2.20611101040104 -0.93369619551955
 1 -2.79554207100710 -1.19149676747675  2.00935098339834
 1 -1.55600493909391  1.22573304950495  0.47009346274627
 1 -1.22795417911791  0.68411672607261  2.70805151625163
 1 -2.02680085398540  2.42648122452245  2.93784990279028
 1 -2.79268160066007  0.96105399069907  3.23280915001500
 1 -1.76030505080508 -1.95783705670567 -0.93720150695069
 1 -1.67876304530453 -0.45446691959196 -0.93518330913091
 1  0.01452945124513 -0.29440087338734  1.41722758795880
 1 -0.07562128192819 -2.03872020582058  1.06964719681968
 1 -3.88328285868587  5.77837566546655  0.70860581828183
 1 -5.31606188678868  6.60466314221422  0.99319622572257
 1 -4.08515954415442  5.56771573257326  2.13968174047405
 1 -8.64820783488349  6.00187529672967 -0.41792816861686
 1 -12.26160571417142 -1.58677954545455 -0.81708613581358
 1 -13.27111332633263 -0.42235583578358 -0.49282691909191
 1 -13.43656147924793 -0.72637475287529 -2.59805692279228
 1 -11.73426038983898  0.39560698219822 -2.64987715721572
 1 -11.72039886428643 -1.65792910991099 -2.65639224662466
 1 -8.16928611191119 -5.03916047164716 -1.93971619961996
 1 -7.42008722332233 -5.53883389598960 -0.40975062696270
 1 -9.37938521852185 -4.92277423862386 -0.36725211571157
 1 -2.71062064346435 -3.87969169406941  0.16246793999400
 1  2.98180979637964 -3.45480275407541 -0.79402511961196
 1  2.58919320812081 -2.53671958695870 -2.24515475077508
 1  3.92384971267127 -0.85502825122512  0.22141574317432
 1  3.95099815681568 -1.19941341384139 -3.86120623562356
 1  5.70624420282028 -0.85457413281328 -4.12408363226323
 1  5.50727455485548 -2.85497811211121 -3.18933311711171
 1  5.89599002090209  0.90653599099910 -1.95963858105811
 1  5.64719982938294  0.85074062186219 -1.00640490389039
 1  6.78597977687769 -1.48552674977498 -0.47710598899890
 1  7.31449684808481 -1.33037182748275 -1.89619909580958
 1  8.21316344774477  0.75809640444044 -1.49193197849785
 1  7.73446194429443  0.92043723192319  0.32539824822482
 1  9.84893734083408 -1.54156159985999 -0.83889104670467
 1  8.76004824912491 -2.01395021072107  1.62260062086209
 1  10.52087815721572 -1.60241412261226  1.80363225462546
 1  9.27300051165117 -0.00496171857186  2.06235754085409
 1  10.88945258305831  1.45813857375738 -0.81273844544454
 1  10.42451219781978  0.95010388598860  0.74263814411441
 1  12.11002854505450 -0.78878131763176  1.10663434673467
 1  12.37577973197320 -0.83282150275028 -0.59278227572757
 1  13.50393526352635  1.41931147614761 -1.00444934953495
 1  12.77023906870687  1.76057030833083  0.79684547394739
 1  15.13029445524552 -0.75238275427543 -0.53368155935594
 1  14.75323522342234  0.47232762826283  2.81590436343634
 1  13.64077135063506 -0.59383705560556  1.93288078617862
 1  15.65819285238524 -0.79132271537154  2.10103658135814
 1  15.57118825372537  2.19988998239824 -0.79504947964797
 1  15.98147217981798  2.20429996549655  0.93347167036704
 1  17.24897621272127  0.28937210781078  1.12165235193519
 1  17.10627815201520  0.13729189838984 -0.81357273467347
 1  17.91640664776478  2.93715026282628 -1.12102509080908
 1  17.94402439853986  2.65892979987999  0.64469113961396
 1  19.59477203840384  0.53309615581558  0.50209356015602
 1  19.93544186218622  0.91892694229423 -2.46500862606261
 1  21.08167245724572 -0.17542934473447 -1.41149528292829
 1  19.07275000200020 -0.21158887728773 -1.72380045474547
 1  20.64389116771677  2.89613919301930  0.76462721632163
 1  21.75658339863987  1.91345792849285 -0.04655737073708
 1  20.63464011691169  3.11243873107311 -1.00760555685569
 1 -0.33342896799680 -4.35594834423442  2.49484783278328
 1 -1.79773945494549 -4.63510078377838  3.71205184178418
 1 -0.94335834913491 -2.64482295939594  3.36249040224022
 8 -11.56269464376438  3.68839363856386 -0.79702151585159
 1 -12.80077058855886  2.33578481858186 -1.57629823482348

