%nproc=4
%Mem=2GB
# td=(NStates=1) iop(3/107=0140000000,3/108=0140000000) iop(3/107=0140000000,3/108=0140000000) CAM-B3LYP/6-31G(d,p) 

TD

0 1
12 -6.63995656775678  0.47659680378038 -0.01782416291629
 6 -4.46799390589059 -1.96081450325033  0.42949322632263
 6 -4.29315113051305  2.80908254135414  1.01152403400340
 6 -9.01833453815382  3.09141316541654 -0.13365286698670
 6 -9.27361545914592 -1.78761179077908 -0.75435549424943
 7 -4.67219229112911  0.38809820752075  0.78285731783178
 6 -3.89874714031403 -0.79906961376138  0.74519507490749
 6 -2.55819923852385 -0.58430018921892  1.01874393669367
 6 -2.47149711551155  1.01714186298630  1.33345550805081
 6 -3.92611887478748  1.52780286548655  1.02359713441344
 6 -2.20894718041804  1.28190998689869  2.78119268206821
 6 -1.54099284768477 -0.88541110451045 -0.08625729942994
 6 -0.22646076437644 -1.26190789738974  0.27499657315732
 6  0.82399347854785 -1.33002023892389 -0.92908108190819
 8  0.75872594069407 -0.79118173067307 -2.01251224142414
 8  1.90225051165116 -1.98429872847285 -0.41561648414842
 7 -6.67433917611761  2.57896826682668  0.29336308420842
 6 -5.61050161106111  3.30776942014201  0.65928222442244
 6 -6.01820603580358  4.61219090389039  0.77938280688069
 6 -7.37887860126013  4.72061815231523  0.61281786508651
 6 -7.78738044194419  3.45416422482248  0.20207503890389
 6 -5.01644656495650  5.91697912841284  1.20401806980698
 6 -8.17348891019102  6.01216813691369  0.26131565526553
 8 -7.80396431263126  7.15435705230523  0.30191804860486
 7 -8.83275682918292  0.70296115531553 -0.34374702380238
 6 -9.51257492989299  1.92640737603760 -0.52596364866487
 6 -10.92582921322132  1.52995286638664 -0.61433721492149
 6 -10.97152150965096  0.16586749114912 -0.86141699719972
 6 -9.62909457275727 -0.39278744194419 -0.77746982368237
 6 -12.10006678197820  2.47684387748775 -0.85131978277828
 6 -12.06332945344534 -0.80154371667167 -1.35738387208721
 6 -12.07428429052905 -0.90457262246225 -2.96077887258726
 7 -6.89304578747875 -1.26364892619262 -0.12234487898790
 6 -7.99602226382638 -2.26570656735674 -0.32908610661066
 6 -7.51473905900590 -3.74764208660866 -0.43613462356236
 6 -6.06053167436744 -3.61567072797280 -0.09677793839384
 6 -5.76837312601260 -2.09928874337434  0.12885907020702
 6 -8.35501402490249 -4.91065844364436 -0.55642845874587
 6 -4.84714091859186 -4.32993879197920  0.03544156985699
 8 -4.64848659735974 -5.43339387768777 -0.33764325772577
 6 -3.83578730413041 -3.46017657685769  0.33755840304030
 6 -3.24651816271627 -3.60994717021702  1.76002571557156
 8 -3.75382062216222 -3.91216795159516  2.80037870767077
 8 -1.87526920182018 -3.23840014531453  1.71288122732273
 6 -1.06789531163116 -3.47407249734974  3.02618704390439
 6  2.95680757355736 -2.17742291919192 -1.18168941304130
 6  4.09785355275528 -1.22451945304530 -1.03737927022702
 6  5.17545830123012 -0.97043391479148 -1.93712991459146
 6  5.30471445524552 -1.89560269496950 -3.23321030323032
 6  6.25008883348335  0.00312265936594 -1.55789234773477
 6  7.43519221322132 -0.66002178427843 -0.82907964526453
 6  8.60286284658466  0.32158779337934 -0.49431791229123
 6  9.79583267266727 -0.19143606390639  0.12220391469147
 6  9.63051056735674 -0.56904571927193  1.57968233703370
 6  10.94028635863586  0.90509536373637  0.06215105350535
 6  12.23512878337834  0.08738004520452  0.32640095129513
 6  13.28260980358036  0.97882515721572  0.35282818121812
 6  14.62280861606161  0.40101337943794  0.66574123622362
 6  14.86830181828183  0.01830955045505  1.94851477547755
 6  15.83330295869587  1.29905480748075  0.09811301660166
 6  17.21786126422642  0.48441366576658  0.04562768886889
 6  18.33367291469147  1.49320651185119 -0.60186033283328
 6  19.68334053515352  0.83473196799680 -0.47498758245825
 6  19.97169697099710 -0.37702227192719 -1.44620041124112
 6  20.64380154905491  1.90440185818582 -0.66468156405641
 1 -3.61914255255526  3.74830608160816  0.91152055375538
 1 -10.03005698819882  3.92729181428143 -0.02946658055806
 1 -10.36222871447145 -2.37630803010301 -0.84438726462646
 1 -2.12362487928793 -1.32561017881788  1.82049209750975
 1 -1.60273961256126  1.54998547474747  0.59968642204221
 1 -0.84548593229323  1.02357067146715  2.83901461256126
 1 -2.21208938283828  2.50677925432543  2.63489960776078
 1 -2.77841017351735  0.99734762006201  3.61988785788579
 1 -1.81372039233923 -1.80250152315231 -0.74571235803580
 1 -1.54079924892489  0.22776130323032 -0.63232302310231
 1  0.05829382768277 -0.67210864416442  1.04243010821082
 1 -0.24819853965397 -2.29815614941494  0.85624585668567
 1 -4.35433996439644  5.79879770767077  0.69254421212121
 1 -5.20666094669467  6.91498417431743  0.80992789888989
 1 -4.82030305850585  6.17261622262226  2.45596336863686
 1 -9.00576359045905  5.79487459665967  0.07808143234323
 1 -12.21897145074507 -1.83107397489749 -1.21637606480648
 1 -12.95948216321632 -0.58995259545955 -0.96015365176518
 1 -12.78724654775478 -1.62561467686769 -3.26594371147115
 1 -12.69588655245525  0.37064448594860 -3.56308847834784
 1 -10.89760658505851 -1.07552086908691 -3.36703331073107
 1 -8.82337152045205 -4.69443599919992 -1.63181540954095
 1 -7.77215242984298 -5.83466347894789 -0.50751040294029
 1 -9.12301958195820 -5.10405236643664  0.28396300580058
 1 -2.93813339473947 -3.65540926582658 -0.45160346714671
 1  3.29592120752075 -3.43355062886289 -1.23682940004000
 1  2.44122841164116 -2.15262117711771 -2.31797203250325
 1  3.85213254095410 -0.47223997239724 -0.10048644704470
 1  4.62297535453545 -1.93702717521752 -3.99830994599460
 1  6.26959053745375 -2.05581425682568 -3.46427765166517
 1  5.52490631803180 -3.01218383268327 -3.08542272607261
 1  6.79294971687169  0.52349768716872 -2.51767438463846
 1  5.60646575597560  0.66365191299130 -0.98134239763976
 1  6.92603378227823 -1.01919011611161  0.13542526412641
 1  7.93709910831083 -1.63604239453945 -1.23706318221822
 1  8.92466459785979  0.74451504630463 -1.53453623892389
 1  8.09313781188119  1.14546973517352  0.02647835623562
 1  10.02483493059306 -1.11174861856186 -0.27292445004500
 1  8.63349559385939 -1.18571738743874  1.67429579037904
 1  10.47592366176618 -1.08306218741874  1.73010490189019
 1  9.50204341594159  0.43292206980698  2.22605391049105
 1  11.00772441024102  1.29144190409041 -1.20481765336534
 1  10.78604835143514  1.69394827042704  0.63671755205521
 1  12.07957549974997 -0.22288472797280  1.49355303860386
 1  12.27651980598060 -0.98137635823582 -0.20422341984198
 1  13.37543241324133  1.53353289828983 -0.56356526112611
 1  13.01747379217922  1.69927417871787  1.05364115351535
 1  14.48246967276728 -0.50793830983098  0.18987079587959
 1  14.94391429132913  0.84737513301330  2.59660243324333
 1  14.06993426692669 -0.63871154305431  2.59571706980698
 1  15.75538257135713 -0.66824040714071  1.77320379807981
 1  15.81692282718272  1.82440243364336 -1.00339031373137
 1  15.76943097569757  2.02586212171217  0.63564188738874
 1  17.65668698379838  0.27770094069407  1.30752093879388
 1  17.24838236243624 -0.69756158695869 -0.52792416981698
 1  18.15739074617462  1.68959550735074 -1.73649663796380
 1  18.46593658975898  2.56001990889089 -0.07349067856786
 1  19.87126968816882  0.39010185638564  0.69379273007301
 1  20.01791010901090 -0.40802575297530 -2.54818694389439
 1  20.94044833483348 -0.82290409220922 -1.07168130153015
 1  19.38356108310831 -1.21615933433343 -1.14936301100110
 1  20.40511729032903  2.80450002910291  0.03096384998500
 1  21.72829056935694  1.57810439313931 -0.45038775377538
 1  20.56077273017302  2.50147763496350 -1.76834163046305
 1 -0.31901752685268 -3.60716346574657  2.56863521152115
 1 -1.57960764176418 -3.79917719141914  3.63740437703770
 1 -1.39828384168417 -2.33549202630263  3.42754690789079
 8 -11.89648802310231  3.78413321252125 -0.56883869756976
 1 -12.99376988848885  1.96362760286029 -1.46614721972197

