%nproc=4
%Mem=4GB
# td=(NStates=1) iop(3/107=0140000000,3/108=0140000000) iop(3/107=0140000000,3/108=0140000000) CAM-B3LYP/6-31G(d,p) 

TD

0 1
12 -5.67402890949095  1.23663853815382  0.24404300950095
 6 -5.13261364856486 -2.14496295959596 -0.29172603940394
 6 -3.35418420752075  1.13638392319232  2.74593996729673
 6 -6.22070086578658  4.62572583678368  0.76527673647365
 6 -8.06583235033503  1.11384223492349 -2.30047772127213
 7 -4.41162541584158 -0.31982017381738  1.07074841364136
 6 -4.25854938243824 -1.58752245384538  0.68071042064206
 6 -3.19114223872387 -2.32794609740974  1.44978934263426
 6 -2.80956412741274 -1.21509440034003  2.60388694479448
 6 -3.60069749714971 -0.08896152385239  2.12646723192319
 6 -3.33734677407741 -1.73421686308631  3.90661336073607
 6 -1.94294948814881 -2.63939134843484  0.56436174167417
 6 -0.99441108460846 -3.51184876547655  1.37425101310131
 6  0.31900700120012 -3.94284812551255  0.67797599229923
 8  0.54126419071907 -3.46392370597060 -0.42801903610361
 8  1.05319216491649 -4.82897251455146  1.28258286558656
 7 -4.86103691999200  2.64788416531653  1.46250648234823
 6 -3.99609169896990  2.37259468116812  2.46710731403140
 6 -3.72997250095009  3.63942244444444  3.12043259945995
 6 -4.46774732743274  4.61272280058006  2.68742801410141
 6 -5.27138324252425  3.96989508470847  1.53110920322032
 6 -2.69448481158116  3.85574295009501  4.32639682908291
 6 -4.64434096469647  6.04642206270627  2.97864736953695
 8 -4.02452250025002  6.60333822182218  3.82929682958296
 7 -6.86462026192619  2.60916081188119 -0.74529618591859
 6 -6.94937765256526  3.98058767596760 -0.39250093879388
 6 -7.87155234163416  4.62115884068407 -1.25084919441944
 6 -8.32580203350335  3.63157008690869 -2.06155509990999
 6 -7.69598848934893  2.38668467726773 -1.68071401790179
 6 -8.17298028892889  6.04269417881788 -1.15109461826183
 6 -9.38726308960896  3.81497189538954 -3.14137877067707
 6 -8.75763721742174  4.03989213541354 -4.52450885488549
 7 -6.34176259525953 -0.11551656935694 -1.10098519051905
 6 -7.30854038363836 -0.07290335893589 -2.13171738243824
 6 -7.61704921212121 -1.36814851845185 -2.67228975157516
 6 -6.68171772057206 -2.17715728752875 -2.12972913861386
 6 -6.00485890129013 -1.40840440554055 -1.04683081348135
 6 -8.37500295809581 -1.66737686368637 -3.92078897509751
 6 -6.29401306840684 -3.57163274717472 -1.99945350045005
 8 -6.62110650615061 -4.49429712811281 -2.66987325242524
 6 -5.11506006810681 -3.56418447104710 -0.91305362516252
 6 -5.28112558995900 -4.70683612471247  0.06663033483348
 8 -5.67084285588559 -4.53745275337534  1.19106546994699
 8 -5.09133883208321 -5.90109130553055 -0.51420456505651
 6 -5.28770633483348 -7.07657951125113  0.37858968876888
 6  2.30298127132713 -5.12908402860286  0.59231318571857
 6  3.39034356935694 -4.11924208510851  1.09803770357036
 6  4.05569495969597 -3.26333920402040  0.31094472947295
 6  3.79660399929993 -2.87922286358636 -1.12993249774978
 6  5.21527795359536 -2.51710675827583  0.91388518731873
 6  6.46882175347535 -2.71971489668967  0.07344881228123
 6  7.66207153075308 -1.87500685618562  0.72060775127513
 6  9.00837165846585 -2.02307714131413 -0.02661044354435
 6  9.59117549924992 -3.33004364476448  0.02351889418942
 6  9.89623020212021 -0.85955619301930  0.43123563906391
 6  11.30710801320132 -0.90215982288229 -0.36423518971897
 6  12.03653134173417  0.47656228372837  0.08626547414741
 6  13.40521297709771  0.61189605950595 -0.62802756595660
 6  14.28528682768277 -0.65684508710871 -0.34047819871987
 6  14.05909184878488  1.87089326092609 -0.17179643444344
 6  15.35264945534553  2.15859388758876 -0.97445244024402
 6  15.96168875327533  3.57684243704370 -0.65619623282328
 6  17.31822707180718  3.84503234483448 -1.36582051725173
 6  17.10320290999100  3.78344323602360 -2.84117634183418
 6  17.93091249734973  5.17548281358136 -0.88233769266927
 1 -2.65029075187519  1.11500577597760  3.48749921832183
 1 -6.34342232103210  5.77095247564757  1.07135612731273
 1 -8.86482688988899  1.07796809970997 -3.21569704850485
 1 -3.84721578637864 -3.07673298869887  1.74958301910191
 1 -1.71645876977698 -1.11450911251125  2.74089536563656
 1 -2.76941672077208 -2.48346150735073  4.41787533153315
 1 -3.20291108380838 -0.80501040544054  4.64415644544454
 1 -4.46282879457946 -2.17216629752975  3.93333728422842
 1 -2.17151246494649 -3.25483500080008 -0.25571619541954
 1 -1.38163599599960 -1.71233034933493  0.42249037063706
 1 -0.76290172367237 -2.87977927352735  2.14645886458646
 1 -1.60117483908391 -4.46048317951795  1.82611440944094
 1 -1.79555966976698  3.02964248864887  4.01742765246525
 1 -2.41868285838584  4.80280748674867  4.65343160086009
 1 -3.22954594959496  3.38867986548655  5.19265427142714
 1 -5.32535559945995  6.60917511191119  2.31431675307531
 1 -10.20141927542754  3.05437609470947 -2.95078833053305
 1 -9.89003980188019  4.91349519361936 -2.84077436813681
 1 -9.51888168796880  4.60666908090809 -5.23764896719672
 1 -7.95895540494049  4.63882362776278 -4.48980893589359
 1 -8.28456830583058  3.00326968576858 -4.81195111991199
 1 -8.24561215081508 -0.88334887778778 -4.74136513481348
 1 -8.47447843084308 -2.67390079517952 -3.97556019301930
 1 -9.41395147464747 -1.53024984838484 -3.76460336703670
 1 -4.11798915631563 -3.54613944054405 -1.54516780368037
 1  2.79500063306331 -5.99231717471747  1.03632958985899
 1  2.16123686708671 -5.10394737083708 -0.56942039163916
 1  3.50588271057106 -4.29534881668167  2.24642965056506
 1  2.88639362606261 -3.10412603370337 -1.60296283728373
 1  4.00677529082908 -1.87162072137214 -1.36978944944494
 1  4.43664583858386 -3.41400512971297 -1.79874880078008
 1  5.07144718561856 -1.37071349534954  0.95003688718872
 1  5.34751327862786 -2.94408604100410  2.00501538183818
 1  6.65855338203820 -3.87241043314331  0.13836172017202
 1  6.25698585898590 -2.36765437443744 -1.01114170967097
 1  7.46270520182018 -0.76272959805981  0.77803504900490
 1  7.73052515541554 -2.05109169226923  1.79034341964196
 1  8.81435554485449 -1.77297557275728 -1.29626296439644
 1  8.97885240394039 -4.00730950235023 -0.43619741214121
 1  10.50814015481548 -3.53343754585459 -0.38330844434443
 1  9.64430349174917 -3.94265535703570  1.06085652835284
 1  9.64059320992099  0.15405113131313  0.42629799359936
 1  10.24681477897790 -1.15583211711171  1.18543808380838
 1  11.79070421172117 -1.99185921782178  0.10585621242124
 1  10.98197428412841 -0.96718962386239 -1.42646397999800
 1  11.43463449694969  1.36798122732273 -0.08266782198220
 1  12.37240206350635  0.46551774317432  1.19957823802380
 1  13.22267906860686  0.73851828412841 -1.71350358905891
 1  14.52611194949495 -0.83357156985699  0.85335101510151
 1  13.92806837783778 -1.50466948324832 -0.82140846234623
 1  15.21208219661966 -0.55829902810281 -0.63853074557456
 1  13.41538973317332  2.82689730883088 -0.45576736443644
 1  14.32959966026603  1.94456474567457  0.92727994189419
 1  16.11341299709971  1.39050766346635 -0.71343783448345
 1  14.92099768316832  2.00448436123612 -1.97342872257226
 1  15.22130353495350  4.24934031203120 -0.80060205830583
 1  15.93703647374738  3.72353899529953  0.41621152155216
 1  18.03317699909991  3.07643913511351 -1.03647272687269
 1  16.22264298469847  4.35338186708671 -3.17429978977898
 1  18.01023694719472  3.93633314661466 -3.46605121022102
 1  16.96938713891389  2.81509257925793 -3.14941297589759
 1  18.05942198939894  5.22608382588259  0.05121678587859
 1  18.98355587788779  5.16819097129713 -1.38420533493349
 1  17.39702125302530  6.07014651775178 -1.09341340264026
 1 -4.74081938333833 -7.90065949904991 -0.19335287298730
 1 -6.34191862216222 -7.32337942454245  0.28022152965297
 1 -5.10996916551655 -6.98634020962096  1.42469692629263
 8 -7.67532512411241  6.86277277807781 -0.48810659465947
 1 -8.94363266036604  6.39501514641464 -2.14044972777278

