%nproc=4
%Mem=2GB
# td=(NStates=1) iop(3/107=0140000000,3/108=0140000000) iop(3/107=0140000000,3/108=0140000000) CAM-B3LYP/6-31G(d,p) 

TD

0 1
12 -6.63619619171917  0.59730887498750  0.08286590609061
 6 -4.60021712821282 -2.18561698349835  0.45003528052805
 6 -4.07214903030303  2.70717235033503  0.88309119071907
 6 -8.78959166386639  3.31443546764676 -0.26354585628563
 6 -9.26838493609361 -1.59251228082808 -0.68847890659066
 7 -4.56429150105010  0.30995039273927  0.66677570967097
 6 -3.88679594519452 -1.00805051185119  0.60227078247825
 6 -2.41709512811281 -0.69470122932293  1.05390745304530
 6 -2.32849281508151  0.66862701150115  1.28814097659766
 6 -3.70125638853885  1.32113219841984  0.87679245394539
 6 -1.92448873457346  1.12653444934493  2.53779834263426
 6 -1.46655540394039 -1.24173673707371 -0.15208388208821
 6 -0.12206032433243 -1.57066877347735  0.31676074957496
 6  0.82682376157616 -1.59799703660366 -0.85121329512951
 8  0.67407747584758 -1.25039765226523 -2.03582457265727
 8  1.94382466906691 -2.33408370697070 -0.45969089158916
 7 -6.40379212141214  2.52774314431443  0.29632338023802
 6 -5.29984054495450  3.11745038823882  0.71905820202020
 6 -5.52940715591559  4.59066875167517  0.61880674927493
 6 -6.84456516991699  4.87901399189919  0.15251183448345
 6 -7.43386509040904  3.53611241964196  0.07098192959296
 6 -4.37928284858486  5.63415084558456  0.81703937193719
 6 -7.56595815711571  6.24542146224622  0.16731625532553
 8 -6.91528544474447  7.26100771737174  0.36289414621462
 7 -8.64189774327433  0.86218707790779 -0.50014266336634
 6 -9.36938061046105  2.12084681998200 -0.47475852815281
 6 -10.81773840414041  1.84910478157816 -0.77231301250125
 6 -10.88667302480248  0.32226313071307 -0.88482933843384
 6 -9.65905756905691 -0.33284144734473 -0.69537161386139
 6 -12.01972874817482  2.89638583168317 -0.79963461426143
 6 -12.14408752925292 -0.41813537583758 -1.11949008270827
 6 -12.28613547564757 -0.85684784998500 -2.77056985168517
 7 -6.93860034293429 -1.31310387168717 -0.28258090259026
 6 -8.05867852945294 -2.26961695839584 -0.51674487248725
 6 -7.63558114321432 -3.51173849624962 -0.48919993009301
 6 -6.36859248044805 -3.64730389128913 -0.05886414701470
 6 -5.95691197989799 -2.20615943044304  0.10066625092509
 6 -8.61656017951795 -4.67736511431143 -0.81562437833783
 6 -5.17290349484948 -4.56214201230123  0.05310333603360
 8 -4.99161090979098 -5.78725926422642 -0.11550104350435
 6 -4.06201992739274 -3.60077063626363  0.53319796699670
 6 -3.49561307220722 -3.88422459795980  1.97546725972597
 8 -3.95225046514651 -3.85818255305531  3.14197286708671
 8 -2.24622629752975 -3.86199250455046  1.97960789999000
 6 -1.46771529362936 -3.89087417751775  3.23989841504150
 6  2.98649054185419 -2.61039621652165 -1.39549079317932
 6  4.12461622902290 -1.69830683178318 -0.80640617291729
 6  5.04877563296330 -1.02397926932693 -1.56870307190719
 6  5.06928091189119 -1.33580671537154 -3.27511449364936
 6  5.91915574017402 -0.08547620052005 -0.90551711021102
 6  7.25894458845885 -0.69280506260626 -0.68140487778778
 6  8.23290585088509  0.35185081968197 -0.30758923942394
 6  9.58894198359836 -0.42733965426543 -0.06968527422742
 6  9.51985950225022 -1.35851466616662  1.01756612541254
 6  10.78896122612261  0.61771662586259  0.36642148054805
 6  12.27603287378738 -0.07688638143814  0.47498580978098
 6  13.27992953555355  0.91325860056006  0.59314221262126
 6  14.76766310151015  0.28772205030503  0.48242290439044
 6  14.86610159825983 -0.42625490599060  1.94881480548055
 6  15.65434506290629  1.47067196919692  0.09332253755376
 6  16.99578905700570  1.09369459385939 -0.13895076897690
 6  18.14339388678868  2.12124931613161 -0.14145429222922
 6  19.55394759585959  1.50171866666667 -0.61553163686369
 6  19.54408420972097  1.15750118041804 -2.19493528472847
 6  20.74787195609561  2.72391380938094 -0.39086418231823
 1 -3.20253089138914  3.23703495449545  1.22156155785579
 1 -9.31074505700570  4.31749083418342 -0.24895852975298
 1 -10.26008850045005 -2.23573397269727 -0.91767459335934
 1 -2.12537505430543 -1.33642125992599  2.01200124842484
 1 -1.47539687828783  1.14012448864886  0.62810926432643
 1 -1.04977636133613  0.57982629702970  2.89788049914991
 1 -1.46319449334934  2.35499407580758  2.59211532933293
 1 -2.63119545204520  1.14730261556156  3.26200206930693
 1 -2.07658667896790 -1.83950522352235 -0.77913570037004
 1 -1.62749791879188 -0.51060253315332 -0.79253904470447
 1  0.21169916821682 -0.78158959225923  0.97851371657166
 1  0.01858813901390 -2.64918125192519  0.59596982908291
 1 -3.74587911831183  5.77116494439444 -0.03463850615061
 1 -4.77337761836184  6.60876355225523  0.95419232533253
 1 -3.79783081128113  5.49617857885789  1.65448322062206
 1 -8.63521653575358  6.23745885508551 -0.46347272307231
 1 -12.14566412001200 -1.27061792929293 -0.62292671987199
 1 -12.82635885088509  0.41574797459746 -1.13089072547255
 1 -13.23653147624763 -1.34453656905691 -3.04445156225623
 1 -12.15458242204221  0.12299972147215 -3.31795396489649
 1 -11.43892071647165 -1.46962027902790 -3.49614622202220
 1 -9.62339152245225 -4.53379993559356 -1.48386061406141
 1 -8.12274748934894 -5.75363537613761 -1.27167681958196
 1 -9.20227750775078 -4.61392335353535  0.45020963046305
 1 -3.25838541994199 -3.48671239613961 -0.12927123392339
 1  3.07869948534853 -3.61375864966497 -0.83210892799280
 1  2.76577086588659 -2.34053996899690 -2.49193942924292
 1  3.90397772547255 -1.43794654305431  0.24218782038204
 1  4.39656271327133 -0.69495296779678 -3.72199231423142
 1  6.26587016541654 -0.98736741214121 -3.72414363826383
 1  4.66869069646965 -2.54105671997200 -3.41811599539954
 1  6.31327174907491  0.66439177657766 -1.91694431163116
 1  5.65328043744374  0.48799434723472 -0.03480774417442
 1  7.23434461336134 -1.48024622172217  0.11522324392439
 1  7.34403980238024 -1.15135392569257 -1.72907238313832
 1  8.68218034943494  1.17527812261226 -0.85740852615262
 1  7.89744824292429  0.78425361356136  0.74262997139714
 1  9.79632207930793 -0.96323376707671 -0.93800095769577
 1  8.83227547184718 -2.05213402910291  0.81067942874287
 1  10.41364743414341 -1.78001188238824  1.22423431483148
 1  9.23837704930493 -0.82912413481348  1.78593989908991
 1  10.87768140594059  1.27756051595160 -0.18922609420942
 1  10.62118186478648  1.15014388998900  1.38210209050905
 1  12.47392493469347 -0.93570601010101  1.30718440174017
 1  12.24571672567257 -0.79524774537454 -0.53315631313131
 1  13.37556242624263  1.58000754575458 -0.55234413901390
 1  12.98812085688569  1.46287053835383  1.33599938933893
 1  14.99086051185119 -0.31917943394339 -0.38131632283228
 1  15.03114301420142  0.41239163466347  2.74660743374337
 1  14.10933820732073 -1.28045571747175  2.38497599569957
 1  15.84720175327533 -0.92126570967097  1.99145562326233
 1  15.25440657555755  1.95791578497850 -0.45196517121712
 1  15.71104513711371  2.08502803830383  1.20510883408341
 1  17.14781609670967  0.72607577817782  0.60288047474747
 1  17.00637816201620  0.62839100830083 -0.88137951535153
 1  17.67663267036704  3.18691523932393 -0.73167615591559
 1  18.15888588468847  2.65793970087009  0.58150482098210
 1  19.73071563276328  0.58122096829683  0.01172452325233
 1  19.62329064706471  2.22166721632163 -2.63076520172017
 1  20.34767905790579  0.35992419061906 -2.27445157855786
 1  18.55291801880188  0.67633991559156 -2.31750982568257
 1  20.74553133173317  2.83752333143314  0.78735948954896
 1  21.61806954725473  2.32587917061706 -0.88049076407641
 1  20.36120277317732  3.78621610881088 -0.76068086438644
 1 -0.59113473857386 -4.15565831523152  2.96411475947595
 1 -1.65494517551755 -4.71107838153815  3.84988562516252
 1 -1.37916192949295 -2.80444892199220  3.82173632683268
 8 -11.80735911021102  4.08079287848785 -0.90934274797480
 1 -12.98440895239524  2.34379561966197 -1.03790439543954

