%nproc=4
%Mem=2GB
# td=(NStates=1) iop(3/107=0140000000,3/108=0140000000) iop(3/107=0140000000,3/108=0140000000) CAM-B3LYP/6-31G(d,p) 

TD

0 1
12 -6.70713328542854  0.64830397449745  0.11929954945495
 6 -4.56847395389539 -2.01112953475348  0.43341361836184
 6 -4.22078389378938  2.92604423752375  0.82098498009801
 6 -9.00532323702370  3.21836586068607 -0.19290879257926
 6 -9.46102420002000 -1.78418144774477 -0.55061512021202
 7 -4.76034110601060  0.30614001170117  0.44431346344634
 6 -3.98490575617562 -0.77028673547355  0.54606516191619
 6 -2.57403082168217 -0.59969172837284  0.83821588388839
 6 -2.50209017481748  0.93125327412741  0.94910707320732
 6 -3.91574783768377  1.55623570877088  0.80823559825983
 6 -2.15179146484648  1.22935473137314  2.58960352315231
 6 -1.65851459985999 -1.09634219761976 -0.33087176087609
 6 -0.15481359965997 -1.17833954055406  0.19924899839984
 6  0.81374245344534 -1.14692192909291 -1.05258343214321
 8  0.71275134323432 -0.50478309080908 -2.08455944614461
 8  1.73760404700470 -2.08383868246825 -0.62002692519252
 7 -6.69847158935894  2.58959932993299  0.31984573247325
 6 -5.47762832373237  3.26373501670167  0.63367966416642
 6 -5.83830804600460  4.74580426522652  0.55764063266327
 6 -7.12384309770977  4.94330042054205  0.28680526382638
 6 -7.82418412231223  3.50306911531153  0.19597442884288
 6 -4.65697061736174  5.59524695519552  0.72156982498250
 6 -7.89695125642564  6.16562348244824  0.14790431413141
 8 -7.29976389258926  7.32236385298530  0.24481233803380
 7 -8.91567512101210  0.74383524272427 -0.29018166726673
 6 -9.57194086648665  1.81901663696370 -0.34885593789379
 6 -11.03357998829883  1.54086395749575 -0.69753553475348
 6 -10.98568292579258  0.10599150355035 -0.72226308180818
 6 -9.80689235253525 -0.43030119331933 -0.55328740544054
 6 -12.02399917521752  2.62477867096710 -0.74602925372537
 6 -12.30068318881888 -0.71531509380938 -0.91104923862386
 6 -12.47026388848885 -1.18724088928893 -2.42612540724072
 7 -7.05235171807181 -1.44923748504850  0.00892824832483
 6 -8.20270293189319 -2.28137813451345 -0.30980417841784
 6 -7.71387897299730 -3.73566088848885 -0.30211122122212
 6 -6.28633425462546 -3.59992915381538 -0.09532779337934
 6 -5.87845413411341 -2.23700251475148  0.16863304760476
 6 -8.48286681018102 -4.87625500330033 -0.43670648654865
 6 -5.08543474797480 -4.40172597069707  0.12956098179818
 8 -5.09061080978098 -5.73603414171417  0.14617512411241
 6 -3.92416614201420 -3.53571413061306  0.42488713591359
 6 -3.32591610251025 -3.60940711621162  1.70717043004300
 8 -3.82402764286429 -4.00969770457046  2.86537520732073
 8 -2.00734240914091 -3.67758406370637  1.68763870307031
 6 -1.02295081718172 -3.90234532463246  2.81894631983198
 6  3.13105499829983 -2.18506368326833 -1.53072431653165
 6  4.06096986438644 -1.19226622772277 -1.18572410471047
 6  5.25567632303230 -0.82613948534853 -1.93914011561156
 6  5.39092307610761 -1.26571970667067 -3.32866984918492
 6  6.18106193079308  0.25961830893089 -1.35715227372737
 6  7.39389808380838 -0.62777855995600 -0.95618235553555
 6  8.50549310961096  0.34546018061806 -0.41587006750675
 6  9.80420350975097 -0.49771669196920 -0.03649195489549
 6  9.81401891819182 -1.15606442114211  1.24764913371337
 6  10.97088941894189  0.59092394659466  0.04594943334333
 6  12.21674694519452  0.00380168736874  0.21519983118312
 6  13.42679422202220  0.95942321702170  0.31164406280628
 6  14.80880721592159  0.32561583968397  0.58709337143714
 6  15.15432042014201 -0.20281256175618  2.04921484548455
 6  15.97163679207921  1.40319522152215  0.20449365466547
 6  17.39323880198020  0.57420264466447  0.35782890899090
 6  18.48082763016302  1.68551574277428 -0.15868601540154
 6  19.88195039613962  0.99275777057706 -0.16202628632863
 6  19.94293409470947  0.07260269056906 -1.32516830803080
 6  21.00007717661766  2.14663608160816 -0.23503859975998
 1 -3.35178581688169  3.73035428642864  0.94028343004300
 1 -9.85136911941194  3.85165425052505 -0.51631526542654
 1 -10.47874036563656 -2.25250564986499 -0.78444127002700
 1 -2.18450096689669 -1.20959857765777  1.79078912721272
 1 -1.66622596119612  1.50442091829183  0.20985743914392
 1 -1.49731111481148  0.63613192759276  3.08544925602560
 1 -1.81278945284528  2.38998757515752  2.49367548534853
 1 -3.12476480898090  1.37922580788079  3.50189605870587
 1 -2.17960698099810 -1.75240651365137 -0.92353013981398
 1 -1.62367753675367 -0.16869834273427 -0.96085587638764
 1  0.42579057735774 -0.43373480678068  0.43448931413141
 1  0.15771205140514 -2.10756709050905  0.65031526362636
 1 -3.93103763416342  5.91481930983098 -0.05687072937294
 1 -5.06697697829783  6.69958263416342  0.71338824492449
 1 -4.23674470267027  5.55140410141014  1.43378115041504
 1 -8.52636565066507  5.90473558275828 -0.39462583838384
 1 -12.32995254885489 -1.58916978447845  0.03951952475248
 1 -13.26450266526653 -0.53539713991399 -0.55599323572357
 1 -13.50244806790679 -1.92716483188319 -2.42227934503450
 1 -12.99784674847485 -0.16496907540754 -2.86977914741474
 1 -10.99397622202220 -1.32210552755276 -2.72281888928893
 1 -9.40594977827783 -5.02965952155215 -1.48952118011801
 1 -7.78629384398440 -5.75993600620062  0.00395074317432
 1 -9.55460274027403 -4.87172913411341 -0.01091648214821
 1 -3.05578515991599 -3.71470519541954 -0.50712901970197
 1  3.54439605500550 -3.08839611341134 -1.38953467056706
 1  2.61590587938794 -1.96638255325532 -2.67513774907491
 1  3.92135946364637 -0.42003475187519 -0.04512091049105
 1  4.62760581758176 -0.48912238473847 -3.98237835283528
 1  6.66598017641764 -1.20174885028503 -3.87545876977698
 1  5.40779460686069 -2.49532214651465 -3.45115929972997
 1  6.33544396629663  1.08099343674367 -2.53194581178118
 1  5.61234634403440  1.23531907970797 -0.48797306070607
 1  7.04316549544954 -1.41135933303330  0.05711743334333
 1  8.06242164056406 -1.40092888318832 -1.64689416531653
 1  8.67000913231323  1.24232482728273 -1.06095888118812
 1  8.29582808090809  0.65599078727873  0.32700840924092
 1  10.07069951705170 -1.31184862856286 -0.80313747134713
 1  8.83093533783378 -1.86713552925292  1.30285864666467
 1  10.48653472287229 -1.52851673287329  1.48960085148515
 1  9.65917912951295 -0.50591181358136  2.21247255235524
 1  11.21291492929293  1.01232399229923 -1.32567973957396
 1  10.50113986058606  1.44251312691269  0.58082196249625
 1  12.08126566876688 -0.30308274777478  1.12429611291129
 1  12.23575572957296 -0.81514973557356  0.04378138063806
 1  13.31002587258726  1.40754029902990 -0.41422032663266
 1  13.26770881568157  1.81983623492349  1.01411720112011
 1  14.78952037783778 -0.28043555955596 -0.18002619381938
 1  15.02444234413441  0.80742113761376  2.65737851085109
 1  14.48834610811081 -0.80922859475948  2.37466496459646
 1  16.01027806090609 -0.68403198629863  1.89734621232123
 1  15.85498663356336  1.72618261166117 -0.89033900860086
 1  15.87827185978598  2.13588312381238  0.99790811401140
 1  17.69704101920192  0.07031020162016  1.16245643234323
 1  17.30159768396840 -0.33724555535554 -0.49737111451145
 1  18.04118912601260  2.48940548834883 -1.04185717401740
 1  18.68468846494650  2.44073798069807  0.69881655215522
 1  20.46825938713872  0.41918476467647  0.73759711051105
 1  19.91080939893989  0.49461451105111 -2.14911703690369
 1  21.14193848384839 -0.28593039483948 -1.03575770917092
 1  19.21583431043105 -0.63332105050505 -1.43826190089009
 1  20.73864064266427  3.21896147524753  0.40141089468947
 1  22.06863460376038  1.65049163186319 -0.15828854385439
 1  21.04946159905991  2.54082156935694 -1.28446324262426
 1  0.53079745464546 -4.32002475187519  2.52597094509451
 1 -1.60774045504550 -4.78921619531953  3.39127976457646
 1 -1.32807682098210 -2.65369384648465  3.32324647784779
 8 -11.86902527682768  3.79137393659366 -0.67279909360936
 1 -13.17222773427343  2.43318455855585 -1.03639424442444

