%nproc=4
%Mem=2GB
# td=(NStates=1) iop(3/107=0140000000,3/108=0140000000) iop(3/107=0140000000,3/108=0140000000) CAM-B3LYP/6-31G(d,p) 

TD

0 1
12 -6.89084165626563  0.65755489958996  0.23083070257026
 6 -4.56996410291029 -2.05938436023602  0.38589886688669
 6 -4.19515133053305  2.91781341444144  0.96359924152415
 6 -9.04439714441444  3.17550157425743 -0.15185468716872
 6 -9.21570966856686 -1.76908993859386 -0.76719677837784
 7 -4.64315938783878  0.48096749444945  0.45982501460146
 6 -3.83738100370037 -0.68773848064806  0.60701125652565
 6 -2.43572699129913 -0.45409716891689  0.91674373667367
 6 -2.43487345314531  1.03225337413741  1.12596475897590
 6 -3.86693295619562  1.54890497569757  0.81128590329033
 6 -2.02055834153415  1.48981077697770  2.61301586438644
 6 -1.50584933333333 -0.87470003340334 -0.16862553625363
 6 -0.11279939823982 -1.29448115471547  0.37218629212921
 6  0.87842892209221 -1.27754499139914 -0.66284445824582
 8  0.81292136023602 -0.74477709020902 -1.74978596879688
 8  1.86295658225823 -2.12081237983798 -0.29984490699070
 7 -6.65702744494449  2.72792316231623  0.38423217111711
 6 -5.47615817671767  3.44987363056306  0.61892818901890
 6 -5.92868708390839  4.85386507130713  0.74055892449245
 6 -7.24652536593659  4.93740983148315  0.42743932723272
 6 -7.71892359625963  3.50053886228623  0.22452728412841
 6 -4.93661858215822  6.00340777127713  1.10917858585859
 6 -8.11598315961596  6.07378429852985  0.18859838353835
 8 -7.61028494469447  7.14288590519052  0.20975883268327
 7 -8.77632118561856  0.73788464766477 -0.44723737283728
 6 -9.51670534293429  1.83006774207421 -0.33125417771777
 6 -10.98048467876788  1.46766663776378 -0.74805058625863
 6 -10.97186154365436  0.10459136353635 -0.88507936343634
 6 -9.60706236953695 -0.38199636283628 -0.69185126182618
 6 -12.08138491379138  2.35629182228223 -0.91925657645765
 6 -12.10901402190219 -0.58044160646065 -1.30643877757776
 6 -12.28452531463146 -0.72765493069307 -2.99151194589459
 7 -6.99680616351635 -1.33636619791979  0.10375773127313
 6 -7.90420308190819 -2.19755975267527 -0.46573977197720
 6 -7.60451803690369 -3.63964128652865 -0.21320233033303
 6 -6.20136575777578 -3.63218237913791  0.07277901730173
 6 -5.88933522222222 -2.18853766826683  0.15027121142114
 6 -8.25341386488649 -4.87367474527453 -0.60677349324933
 6 -5.06437264176418 -4.32904870297030  0.23309133483348
 8 -4.87253900260026 -5.42372291059106 -0.20230972437244
 6 -3.90228395379538 -3.38854941414141  0.39366401360136
 6 -3.41289480038004 -3.64671084658466  1.86487620062006
 8 -3.97889312941294 -4.06046278107811  2.79563823362336
 8 -2.03286496139614 -3.41001730703070  1.87643758295830
 6 -1.01522004410441 -4.00636572667267  3.04664909010901
 6  2.84682657545755 -2.32763794069407 -1.33787503160316
 6  3.94896866426643 -1.50251725282528 -0.99534506680668
 6  4.98635939133913 -1.26144301570157 -1.94123032463246
 6  5.09359334313431 -1.94663779847985 -3.21318830103010
 6  6.20207403200320 -0.40282793569357 -1.43883044154415
 6  7.48688738273827 -0.96381216331633 -1.21241797909791
 6  8.50865342564256  0.00525616021602 -0.58736721722172
 6  9.78301139053905 -0.74707162746275 -0.03707201290129
 6  9.67035455175517 -1.27575639033903  1.45987035583558
 6  11.08926125612561  0.42085693989399 -0.05407056865687
 6  12.35638090859086 -0.17649634243424  0.13079139033903
 6  13.53505504810481  0.86530380508051  0.30179307770777
 6  14.85361169636964  0.30007328542854  0.53159782188219
 6  15.13555854395440  0.03526124562456  1.93187311131113
 6  15.86546617501750  1.40204510651065  0.20183338863886
 6  17.46907638573857  0.66346157055706  0.17195032113211
 6  18.36336588398840  1.90081727292729  0.00197005020502
 6  19.55730793189319  1.26876537133713 -0.23094317801780
 6  19.74173397469747  0.65222065236524 -1.71331712291229
 6  20.75768293719372  2.33972539053905 -0.25711080698070
 1 -3.48591923022302  3.53810506150615  1.03731313301330
 1 -9.83406738923892  3.87719680478048 -0.29284291819182
 1 -9.77924041564156 -2.52168256755676 -1.20037286318632
 1 -2.36665918271827 -0.87164478227823  1.93927397569757
 1 -1.77978731733173  1.54731520772077  0.25872232563256
 1 -1.08074945864586  1.03353166756676  2.81388209930993
 1 -1.90552872677268  2.50278885528553  3.02619873767377
 1 -2.54685701820182  0.94102198749875  3.42629849894990
 1 -1.95190421072107 -1.80208148114812 -0.96672445924592
 1 -1.00260542954295 -0.28823029592959 -0.88139793059306
 1  0.26515451375137 -0.31269270257026  1.18071393659366
 1 -0.05979969976998 -2.09024535833583  0.93775400750075
 1 -4.33626815721572  6.28396622452245  0.39384434213421
 1 -5.57898817941794  6.97623029892989  1.31986889298930
 1 -4.72430345854585  5.83202216321632  1.74460223252325
 1 -9.71551456555656  6.04004911411141  0.44554817901790
 1 -12.20490004360436 -1.52522338983898 -1.05559998719872
 1 -12.99418563356336  0.01636803660366 -1.13410104650465
 1 -13.38315613871387 -0.90449256465646 -3.20283740084008
 1 -11.99336630043004  0.14287170867087 -3.69871204070407
 1 -11.54507133153315 -1.63348666566657 -3.11641824922492
 1 -8.37939712301230 -4.59822637823782 -1.39365159315932
 1 -7.70961617621762 -5.75987600020002 -0.73923357525753
 1 -9.33742102210221 -4.88999096029603 -0.18624401490149
 1 -3.09142872427243 -3.34671839673967 -0.47405571237124
 1  3.14632624802480 -3.40051732553255 -1.23677939503950
 1  2.43722801160116 -2.12226814181418 -2.32059229452945
 1  3.90388771647165 -1.07370011841184 -0.16446284468447
 1  4.15902895989599 -1.66846031853185 -4.24836495149515
 1  6.08943252165217 -1.48781745714571 -3.70797202110211
 1  5.01966579397940 -3.24866748104810 -3.25710989478948
 1  6.32252267416742  0.36454179157916 -2.48855147234723
 1  5.96906201560156  0.46471201900190 -0.87159142254225
 1  7.50858203710371 -1.91211940904090 -0.54454273267327
 1  8.05084048244824 -1.69869866016602 -2.20554002990299
 1  8.38434056545654  0.98370896569657 -1.30835362066207
 1  7.81077957605761  0.47513270147015  0.62656836523652
 1  10.24948739583958 -1.62816025972597 -0.72353951155116
 1  9.04698694299430 -2.06679549524952  1.36059442024202
 1  10.81903797319732 -1.44748863006301  2.09817170857086
 1  9.03555676727673 -0.39119034143414  1.87885919101910
 1  11.03935757355736  0.86491925182518 -1.01899907150715
 1  11.08513826042604  0.93050192579258  0.88777265756576
 1  12.23062060426042 -0.72588502800280  0.92267595089509
 1  12.75089724372437 -0.17803602420242 -0.59936293379338
 1  13.47792266226623  1.32465201020102 -0.74740364496450
 1  13.38234027882788  1.48833308460846  0.89617540694069
 1  15.03659508530853 -0.57908542454245 -0.17700589178918
 1  14.82845274517452  0.97517791329133  2.74296706970697
 1  14.61259853335334 -0.93913158505851  2.04032153025303
 1  16.04443147624762 -0.20535411851185  2.09688616631663
 1  15.55496663156316  1.87125711911191 -0.97872784748475
 1  15.83046707930793  2.15995553105311  0.84487281048105
 1  17.77909922502250  0.24624779537954  1.36027621432143
 1  17.63998152235223  0.26305447464746 -0.69278065546555
 1  18.08740374747475  2.50257680548055 -0.97849083738374
 1  18.53124312041204  2.81894580148015  0.87321399189919
 1  19.88027058825883  0.71147399359936  0.47702105290529
 1  19.35587390539054  1.38582363196320 -2.44503662886289
 1  20.59149343934394  0.09356755495549 -1.92819695309531
 1  18.62218494549455  0.20891317291729 -2.03140121482148
 1  20.64056083468347  3.10129970907091  0.40622137573757
 1  21.74789252955296  1.93415999869987 -0.25634834983498
 1  20.78219487238724  2.98977646484648 -1.02217701400140
 1  0.02143651855186 -4.40065281468147  2.58024637263726
 1 -1.66185586658666 -4.81558883258326  3.78863950055006
 1 -0.46412042534253 -3.13842231933193  3.77942209540954
 8 -11.91404977927793  3.68994379357936 -0.93598541224122
 1 -12.98793930543054  1.95894713481348 -1.61982258725873

