%nproc=4
%Mem=2GB
# td=(NStates=1) iop(3/107=0140000000,3/108=0140000000) iop(3/107=0140000000,3/108=0140000000) CAM-B3LYP/6-31G(d,p) 

TD

0 1
12 -6.80637320942094  0.57098624272427  0.08988660816082
 6 -4.54422152865286 -1.97069549134914  0.57305758275828
 6 -4.18832064746475  2.89478111121112  0.96080896249625
 6 -9.10790349504951  3.10039406350635 -0.42798229992999
 6 -9.27518561616162 -1.76801983158316 -0.74959501820182
 7 -4.80200527242724  0.44675407310731  0.76954598669867
 6 -3.99530679627963 -0.68681838863886  0.74385494089409
 6 -2.62567598619862 -0.48656041524152  1.13985604790479
 6 -2.51303126892689  0.97813796259626  1.28172033453345
 6 -3.98453471637164  1.54167425262526  1.06307108180818
 6 -2.16372265796580  1.37297909380938  2.85377994079408
 6 -1.61367011541154 -0.86000856425643 -0.07353602730273
 6 -0.27150526882688 -0.97335904250425  0.39501857535754
 6  0.68030911011101 -1.09590682758276 -0.89213738753875
 8  0.75577564566457 -0.88385099759976 -2.05459644984498
 8  1.94768505510551 -1.80413071167117 -0.34472939543954
 7 -6.69015075727573  2.63239360936094  0.40951469936994
 6 -5.54364492539254  3.34822346554656  0.69725602180218
 6 -6.11226544174418  4.81642132693269  0.65101997059706
 6 -7.29711042444244  4.86019210971097  0.25525210851085
 6 -7.79123082698270  3.37058586698670  0.05932076347635
 6 -5.12144706500650  5.96442387288729  1.20033770177018
 6 -8.20741230253025  6.01115803590359  0.17187671137114
 8 -7.72965688188819  7.16611822842284  0.27864572137214
 7 -8.73557711121112  0.59713057225723 -0.29280192929293
 6 -9.49964363676368  1.74827956325633 -0.48766981928193
 6 -10.73465009530953  1.54647451855186 -0.96340212141214
 6 -10.98753311081108  0.10502140654065 -1.18343919941994
 6 -9.64046570987099 -0.44407257045705 -0.72003408010801
 6 -11.85076185148515  2.44604079717972 -1.07033168396840
 6 -11.97958107860786 -0.64885844814481 -1.48324645834583
 6 -11.91041790389039 -0.80417258245825 -3.09997279197920
 7 -6.78075455835584 -1.41260382168217  0.00765812131213
 6 -8.01054371597160 -2.21531152785279 -0.43038623662366
 6 -7.55395298039804 -3.64196151855186 -0.47402841294129
 6 -6.21637725892589 -3.69724888578858 -0.04894315491549
 6 -5.86828311701170 -2.17928674317432  0.10076626092609
 6 -8.29907843134313 -5.03821119891989 -0.80565338123812
 6 -5.00342654715472 -4.31470726882688  0.22393041874187
 8 -4.79082083078308 -5.51936247454745  0.11068157475748
 6 -3.79856358175818 -3.30512107130713  0.59572421962196
 6 -3.03561707260726 -3.54535071057106  1.94429414241424
 8 -3.55949118921892 -3.78311504630463  3.09762843264326
 8 -1.78584025892589 -3.52216852215222  1.84941488068807
 6 -0.90965948804881 -3.88863395349535  3.11662608780878
 6  3.13685557835784 -2.07509268616862 -1.11308255235524
 6  4.13397716511651 -1.00812781388139 -0.77602313461346
 6  5.11856261166117 -0.82473934533453 -1.83930013161316
 6  5.28131211501150 -1.47227036173617 -3.17878486068607
 6  6.20772459705971  0.21703405050505 -1.48746530503050
 6  7.42474116811681 -0.77038282038204 -1.03427016431643
 6  8.45266782708271  0.22449808440844 -0.48008648914891
 6  9.74309739913991 -0.37852477277728  0.17712940724072
 6  9.44337185348535 -1.37546636133613  1.23253762256226
 6  10.88944127412741  0.56525137933793  0.32743758215822
 6  12.20227549804981 -0.27821651445145  0.42026033723372
 6  13.45941748434844  0.89869714441444  0.48600149854985
 6  14.64603093829383  0.11156443454345  0.44352901500150
 6  15.05605059315932 -0.69938221872187  1.83348327232723
 6  15.75859548794880  1.31779668166817  0.28908211351135
 6  17.01793127122712  0.48629385378538 -0.13947082098210
 6  18.23518306570657  1.62622981418142 -0.14557470427043
 6  19.62643484458446  1.05102359715972 -0.64354443814381
 6  19.63362316361636  0.67100253055306 -2.07065285648565
 6  20.78211538043804  1.83677509550955 -0.50869596549655
 1 -3.19325996429643  3.63282453345335  1.31536093779378
 1 -9.67347132963296  3.87558664376438 -0.47274090799080
 1 -10.08290078167817 -2.61274167346735 -0.97772059795980
 1 -2.12532504930493 -1.23435105290529  1.90501054935494
 1 -2.08744808340834  2.02180265646565  0.56370282368237
 1 -0.88250963466347  1.23713202760276  3.67342805390539
 1 -2.33599177307731  2.62063063946395  2.75995211301130
 1 -2.74501683418342  0.47477536283628  3.70006587568757
 1 -1.98035705600560 -2.05568684168417 -0.32808059485949
 1 -1.63663883288329 -0.05284675757576 -1.05661545234523
 1  0.19154715301530 -0.17233866716672  0.87044290949095
 1  0.08384466466647 -2.06432276607661  1.32421265336534
 1 -4.21617614801480  6.46555438333833  0.41651660936094
 1 -5.74083436403640  6.95464814071407  1.26010291639164
 1 -4.75344637283728  5.87826678767877  2.26729450175017
 1 -9.43785679977998  5.81751686088609 -0.04718109390939
 1 -11.70671022462246 -1.78189905740574 -1.47425185238524
 1 -12.94255047004700 -0.41911551175118 -1.15247288368837
 1 -12.94568239133913 -1.14665678107811 -3.23085020212021
 1 -11.62366933073307  0.26685410691069 -3.44687685718572
 1 -11.02659948434843 -1.15049836683668 -3.89187579497950
 1 -9.59009819311931 -4.74735129072907 -1.57821004900490
 1 -7.23916913151315 -5.86287630023002 -1.14803445534553
 1 -8.99659693969397 -5.68407036823682  0.07858246774678
 1 -3.04551413281328 -3.37411113601360 -0.32587089388939
 1  3.27564918031803 -3.03733100690069 -0.76246196329633
 1  3.14019830863086 -1.92951886688669 -2.21407164246425
 1  4.46566389408941 -0.72015476387639  0.20328392999300
 1  4.57066012301230 -1.48245171767177 -4.16889700470047
 1  6.06607018541854 -1.39901857725773 -3.77478870277028
 1  5.06376020342034 -2.62876549084908 -2.90696488028803
 1  6.46612703460346  0.82024736213621 -2.55981859905991
 1  5.83795890529053  0.96416196399640 -0.41204546794679
 1  7.53018419731973 -1.69534773187319 -0.25975425382538
 1  7.85999139753975 -1.48078686898690 -2.11215069096910
 1  8.82386451785178  0.78638923372337 -1.48196098139814
 1  8.24470296839684  0.65816100430043  0.44232994139414
 1  10.18306075317532 -1.07531497519752 -0.59608676627663
 1  8.56445869016902 -1.98025684138414  1.39829819061906
 1  10.05985205460546 -2.02298617981798  1.33721561296130
 1  9.59814302590259 -0.74841606400640  2.25631693679368
 1  10.91222486028603  1.62471523142314 -0.47302447404741
 1  10.68423817041704  1.04000287588759  1.71282516281628
 1  12.28851639383938 -0.99110154965497  1.16247993129313
 1  12.45924807880788 -0.78954717531753 -0.49882287978798
 1  13.68253312331233  1.50476002100210 -0.61774067866787
 1  13.29901194599460  1.72299655095510  1.32508829822982
 1  14.74400582638264 -0.98291580758076 -0.69502769396940
 1  15.33234313421342  0.41618201370137  2.41059383238324
 1  14.42706998049805 -1.69887755965597  2.23464096219622
 1  16.06786381948195 -1.10309389248925  1.37350382808281
 1  15.20905204010401  2.15368536193619 -0.43394336903690
 1  15.63384741734173  1.95878541404140  1.05223354655466
 1  17.42004331943194 -0.16071290069007  0.72650283698370
 1  16.92332985718572  0.17598576777678 -1.29187056445645
 1  18.01924693179318  2.35814236203620 -0.75889887818782
 1  18.06486648274828  2.10792469936994  0.66887355785579
 1  19.62341490269027  0.08912175837584 -0.04546119531953
 1  19.26367468546854  1.94389943954395 -2.43531565676568
 1  20.59356364636464  0.49867806600660 -2.89594372777278
 1  19.17524025102510 -0.11892961136114 -2.36528460316032
 1  21.04668144674467  2.16005558465847  0.67535828942894
 1  21.78105584588459  1.64272085478548 -0.74290700570057
 1  20.75975262816281  2.90048753595359 -1.23631842814281
 1 -0.05149077417742 -4.82962571197120  2.73139148714872
 1 -1.54391407240724 -4.80101737543754  3.73561419801980
 1 -0.65078909220922 -2.86715519261926  3.87519167236724
 8 -11.65988436273627  3.57436223542354 -0.91800361406141
 1 -13.05129564106411  2.23002424252425 -1.12285289028903

