%nproc=4
%Mem=2GB
# td=(NStates=1) iop(3/107=0140000000,3/108=0140000000) iop(3/107=0140000000,3/108=0140000000) CAM-B3LYP/6-31G(d,p) 

TD

0 1
12 -6.79386195829583  0.76100524462446  0.13299091859186
 6 -4.58316542304230 -2.09651807360736  0.47531780878088
 6 -4.24650646604660  2.70519215231523  0.81428431003100
 6 -8.98023072777278  3.22208623272327 -0.40342984468447
 6 -9.37357545514551 -1.82714574417442 -0.56581664036404
 7 -4.75842091399140  0.35865526322632  0.61740077217722
 6 -4.04919218481848 -0.83644335113511  0.59895045044504
 6 -2.42543596219622 -0.48983074227423  0.90016207850785
 6 -2.31580154595460  0.98873902270227  1.15793795629563
 6 -3.92583884678468  1.40947103230323  0.84235901060106
 6 -1.87827411311131  1.37969976587659  2.54301886468647
 6 -1.56042479087909 -1.19416197959796 -0.23992266596660
 6 -0.06737485578558 -1.15455716231623  0.26384545804580
 6  0.86045712491249 -1.30401763866387 -0.88394656845685
 8  0.87589765786579 -0.94658727122712 -2.07368835903590
 8  1.88371865846585 -2.03216351495149 -0.47346226872687
 7 -6.63115485768577  2.65040541054105  0.32150589848985
 6 -5.63708426932693  3.26893553675368  0.70032632883288
 6 -5.87535175037504  4.81034071887189  0.75704057265727
 6 -7.15522623602360  4.92316840734073  0.23281986528653
 6 -7.70261196509651  3.57524633303330  0.07578240964096
 6 -5.02303722402240  5.91081851235124  1.31533920192019
 6 -7.85116667796780  6.21632855295530  0.20885040874087
 8 -7.36306022222222  7.15449706630663  0.28948680548055
 7 -8.83068662216222  0.71805266446645 -0.33375602470247
 6 -9.49466313871387  1.85766050135013 -0.47001805410541
 6 -10.90947757805781  1.54872474357436 -0.81233701490149
 6 -11.11448580608061  0.16373727812781 -0.83255411091109
 6 -9.65664732803280 -0.30621878507851 -0.62609468616862
 6 -11.87931470677068  2.56661285438544 -0.81494614541454
 6 -12.25778889938994 -0.74459802210221 -1.32436056975698
 6 -12.42130899299930 -0.89062122732273 -2.71919471417142
 7 -7.08551503440344 -1.48578113941394  0.10557791329133
 6 -8.20152281388139 -2.31473146984698 -0.25115831383138
 6 -7.77528511361136 -3.73083040544054 -0.32469347944794
 6 -6.28896451765177 -3.62124128502850 -0.08838709930993
 6 -5.95662195089509 -2.24719353385339  0.16393257755776
 6 -8.47605612911291 -4.72046942474247 -0.50089290519052
 6 -5.19513571807181 -4.46034183228323  0.22641066676668
 8 -4.97968971767177 -5.67581812011201  0.05194570117012
 6 -3.98757248264826 -3.41372193139314  0.51682632983298
 6 -3.40250376127613 -3.83819999549955  1.84581429442944
 8 -3.88408364846485 -4.07348408320832  2.85174384418442
 8 -1.93432510741074 -3.68280458575858  1.70861080028003
 6 -1.43174169626963 -3.95430052015202  3.05319974517452
 6  3.01999389218922 -2.19100427732773 -1.36707795189519
 6  4.12305607300730 -1.34158115921592 -1.06898243054305
 6  5.06000675607561 -1.10272714411441 -1.87906410801080
 6  5.34057804160416 -1.68644177887789 -3.25250223242324
 6  6.20456428102810 -0.21388904180418 -1.52971953045305
 6  7.51119981398140 -0.84253003510351 -1.00764750205021
 6  8.45641820212021  0.22638827342734 -0.60724920542054
 6  9.80534362376238 -0.33906082638264 -0.13777208290829
 6  9.59333684998500 -1.01658047274727  1.24879924872487
 6  10.98543087308731  0.64017887208721  0.00381521992199
 6  12.22979825032503  0.23182448964896  0.29242755395540
 6  13.40926246884688  1.21729900460046  0.24620751915192
 6  14.89858619381938  0.40537381548155  0.50882554465447
 6  14.95008999709971 -0.10273255375538  2.08057798179818
 6  16.04503413181318  1.39721462346235  0.23307651295129
 6  17.37044652275227  0.64077930233023  0.27496062216222
 6  18.37682723012301  1.60784797599760 -0.22959310611061
 6  19.87206940804080  1.17100559535954 -0.23023310701070
 6  19.96744654595459  0.30045547584758 -1.38684447564757
 6  20.86182335123512  2.29945136313631 -0.47970306620662
 1 -3.56655729402940  3.58014926592659  1.20188959065907
 1 -9.83768775127513  3.85016410151015 -0.30643427732773
 1 -10.13796628822882 -2.48455885518552 -0.92129495539554
 1 -2.23173569036904 -0.87676529432943  2.16812686098610
 1 -1.67331667026703  1.64561503770377  0.82367882128213
 1 -0.80606198989899  1.16739505390539  2.96149686078608
 1 -1.98449662356236  2.61096967336734  2.38500461826183
 1 -2.68181051355135  0.86987487278728  2.94386025512551
 1 -1.98016703700370 -2.53215448844885 -0.39097688448845
 1 -1.43085825482548 -0.65824729762976 -1.47929772057206
 1  0.17812581088109  0.17172573927393  0.67871373657366
 1  0.18655493569357 -1.87248358215822  1.30771100320032
 1 -4.04905943634363  5.60808863676368  0.75037999569957
 1 -5.22168244884488  6.86287896379638  1.13904081018102
 1 -4.74304533273327  5.83813277427743  2.35972374467447
 1 -8.67104011811181  6.05482059125913 -0.27422379817982
 1 -12.01828138173817 -1.75561642914291 -0.69707413461346
 1 -13.22977919291929 -0.53833743394340 -1.22842047844785
 1 -13.43374119721972 -1.75159727512751 -3.14689180628063
 1 -12.90633759755976  0.28854627612761 -3.50657282678268
 1 -11.43644046844685 -1.25944926192619 -3.23887049444945
 1 -8.95788497179718 -4.67215377097710 -1.67273950195020
 1 -8.25686090069007 -5.76263627622762 -0.78329798169817
 1 -9.19897717771777 -4.66390835203520 -0.22577796829683
 1 -3.24948452985299 -3.36639036393639 -0.32721102790279
 1  3.34232584798480 -3.36007328112811 -0.89778549564957
 1  2.79003329212921 -2.21216713171317 -2.40201043634363
 1  3.91734906260626 -0.64189693809381 -0.05232163056306
 1  4.82867592459246 -1.60595406790679 -4.27400751575157
 1  6.15726930533053 -1.47985666106611 -3.62573379727973
 1  5.23686751415141 -2.68807142144214 -3.55655983978398
 1  6.73740416231623  0.35394073147315 -2.44744736193619
 1  5.63911902130213  0.65916146394640 -0.88665292869287
 1  7.24758593749375 -1.57386558365837 -0.35019329772977
 1  7.93170856925693 -1.28123691399140 -1.75633510941094
 1  8.29245137653765  0.85586618141814 -1.50244302960296
 1  7.97818631673167  0.84746993519352  0.02476818521852
 1  9.93495594269427 -1.21010845454545 -0.66333349094910
 1  9.09410165446545 -1.69507832353235  1.07250561136114
 1  10.61242731213121 -1.04239812101210  1.72796468786879
 1  9.01596480808081 -0.32062328472847  1.90139144424442
 1  11.10702434023402  1.51558431833183 -0.58163533513351
 1  10.51346109270927  1.19694857045705  0.99221310161016
 1  12.21320886308631 -0.26216865636564  1.01485516881688
 1  12.40910306430643 -0.43534175477548 -0.13417641514151
 1  13.52560743074308  1.91588113311331 -0.90878978357836
 1  13.30222226702670  2.01003525482548  1.05641143054305
 1  14.98151957775778 -0.40111762776278 -0.32139033023302
 1  14.76956685658566  0.75649604510451  2.89147192019202
 1  14.25289256275627 -0.81008868076808  2.24799229732973
 1  15.97532456555656 -0.53948753185318  2.39030550825083
 1  16.15370650555056  1.88970896429643 -0.58539851455146
 1  16.07245127772777  2.43360289578958  0.69428775197520
 1  17.78510982608261  0.32336550715072  1.34063425012501
 1  17.56403392759276 -0.00938276907691 -0.39568094549455
 1  18.11209621672167  1.77726427422742 -1.35728871717172
 1  18.30925092119212  2.45658956585659  0.35213188368837
 1  20.16768933013302  0.84639748594859  0.77927127792779
 1  19.72455077307731  0.69036408600860 -2.32123424862486
 1  20.81114540454045 -0.23641544334433 -1.30464459785979
 1  19.34617734473447 -0.40914863326333 -1.56760483518352
 1  20.68947572617262  3.26025560466047  0.42875362896290
 1  21.88990673097310  2.12699928262826 -0.50263297829783
 1  20.44607126002600  2.84975246244624 -1.38301309760976
 1 -0.32386801190119 -3.47976072547255  2.86771511951195
 1 -1.53261294229423 -5.07220449414941  3.32353298989899
 1 -1.60111412471247 -3.54273275037504  3.87982213541354
 8 -11.47180555485549  3.88725352455245 -0.90725253895390
 1 -12.87641815331533  2.32616385648565 -0.90364096909691

