%nproc=4
%Mem=4GB
# td=(NStates=1) iop(3/107=0140000000,3/108=0140000000) iop(3/107=0140000000,3/108=0140000000) CAM-B3LYP/6-31G(d,p) 

TD

0 1
12 -5.56963847044704  1.25169004330433  0.19425803100310
 6 -4.98888927612761 -2.05823428672867 -0.29429629642964
 6 -3.35416420552055  1.18661894669467  2.86401177447745
 6 -6.19066786248625  4.51358462266227  0.60850105890589
 6 -7.91657742484248  1.21572242294229 -2.39117679117912
 7 -4.28646289958996 -0.29292748454845  0.99533087188719
 6 -4.16255978347835 -1.55670937253725  0.69552190179018
 6 -3.12514563906391 -2.32627593039304  1.46266062976298
 6 -2.85176834783478 -1.30331322222222  2.60820737683768
 6 -3.47478490589059 -0.04125675337534  2.10892547774777
 6 -3.60495353475348 -1.70765420682068  3.96514921432143
 6 -1.94291948514851 -2.66191360066007  0.61077638313831
 6 -1.11990363386339 -3.79334691529153  1.36059964796480
 6  0.23672877337734 -4.07558139883988  0.67017521222122
 8  0.31860192449245 -3.65186249984998 -0.46489272347235
 8  0.97636448214821 -4.81281089838984  1.29848445574557
 7 -4.90442125842584  2.61247062396240  1.46788702040204
 6 -3.98561065086509  2.39729715141514  2.47374797809781
 6 -3.71642114581458  3.58639714191419  3.14077463366337
 6 -4.41904245694569  4.56124765306531  2.55838510981098
 6 -5.28224432863286  3.90558865406541  1.53113920622062
 6 -2.81592695579558  3.76987436323632  4.37384157355736
 6 -4.55355188578858  6.00002742324232  2.97564706950695
 8 -4.06444649264926  6.51145903390339  3.91770567046705
 7 -6.99528332823282  2.51995189098910 -0.65048670497050
 6 -6.96199891469147  3.88581819901990 -0.44174586328633
 6 -7.95936112251225  4.57154387918792 -1.18290239973997
 6 -8.41396084938494  3.62532946284628 -2.07892683708371
 6 -7.76422531303130  2.34955096389639 -1.74577052355236
 6 -8.31680467136714  6.04148405780578 -1.24044355315532
 6 -9.36557092039204  3.99195959415942 -3.18580321312131
 6 -8.67638909260926  4.24385253145315 -4.49082548654865
 7 -6.37307572657266 -0.16798181588159 -1.16563165516552
 6 -7.23613314291429 -0.00812688128813 -2.11961617231723
 6 -7.50223773097310 -1.22876458005801 -2.73401592419242
 6 -6.66248579737974 -2.15430500230023 -2.12798896459646
 6 -5.96920533593359 -1.35225879097910 -1.10916704710471
 6 -8.42969842764276 -1.59278940494049 -3.82262915911591
 6 -6.12110577767777 -3.51318690259026 -2.06799035413541
 8 -6.50608500400040 -4.47127482588259 -2.59939620472047
 6 -5.02724128622862 -3.51234928752875 -0.86327864766477
 6 -5.38168564596460 -4.55399084018402  0.17402107390739
 8 -5.72963873547355 -4.44924393249325  1.31359772317232
 8 -5.04398409660966 -5.82739393579358 -0.40920406500650
 6 -5.39331689588959 -6.96174802810281  0.35865769556956
 6  2.27827880108011 -5.10911203140314  0.74100805520552
 6  3.37786232123212 -4.10467062796280  1.18809670947095
 6  3.99613900410041 -3.33334620472047  0.33898753375338
 6  3.55778011691169 -3.20211515281528 -1.10067957245725
 6  5.21670809660966 -2.44378942654265  0.78187198599860
 6  6.50713558485849 -2.79601252645265  0.10676214361436
 6  7.64101942554255 -1.93282263776378  0.53606929742974
 6  9.05001582288229 -2.11071590519052 -0.10868865136514
 6  9.67353373507351 -3.41679231963196  0.21577812011201
 6  9.93309388848885 -0.93293353075308  0.32599511501150
 6  11.28991629402940 -0.92410201710171 -0.33513227942794
 6  12.15393308190819  0.27479210671067  0.17409425702570
 6  13.52485494129413  0.51098596849685 -0.58504326752675
 6  14.43566186518652 -0.58865826842684 -0.42969712061206
 6  14.24416035563556  1.75818198979898 -0.28050730553055
 6  15.39897408780878  2.25143317151715 -1.11046604160416
 6  15.99931251565156  3.62357711051105 -0.74217483068307
 6  17.33066831593159  4.01288913051305 -1.29312324752475
 6  17.14958754845485  3.96325121682168 -2.81284350855086
 6  17.75967537363736  5.43092835813581 -0.86867632653265
 1 -2.58598432123212  1.20827510291029  3.73578404680468
 1 -6.42110008880888  5.54930031043104  0.69359835153515
 1 -8.53023343054305  1.22274257715772 -3.35039051785179
 1 -3.55322638743874 -3.26219153455345  1.86709477027703
 1 -1.84696182008201 -1.21262892449245  2.83472474857486
 1 -3.22217199629963 -2.73754691589159  4.21474501850185
 1 -3.33090388308831 -0.91234113851385  4.67560959075908
 1 -4.72590510221022 -1.79690877177718  3.95442939343934
 1 -2.24978029172917 -3.27845736303630 -0.33542416621662
 1 -1.47987581998200 -1.75923503980398  0.48785690729073
 1 -0.73891932543254 -3.32503379897990  2.45129934863486
 1 -1.72846756835684 -4.66621375257526  1.58772057005701
 1 -1.80783089688969  3.35043456785679  4.34121003070307
 1 -2.77469845994599  4.87281448744874  4.46178243594360
 1 -3.47229022402240  3.28830982848285  5.20916592259226
 1 -5.11270433433343  6.66985117951795  2.14026934833483
 1 -9.90637977147715  2.98017867496750 -3.28439169086909
 1 -10.07605840374037  4.90191403550355 -2.89248953965397
 1 -9.69724952475248  4.61437985198520 -5.15376057835784
 1 -8.27158666806681  5.18206795219522 -4.53693364836484
 1 -7.90346019501950  3.59932929172917 -4.97291721652165
 1 -8.01680927052705 -1.07268781168117 -4.64242524082408
 1 -8.37454843784379 -2.74952835793579 -4.09240187718772
 1 -9.52451253075308 -1.03758058145815 -3.70043695039504
 1 -4.11403876127613 -3.73325815241524 -1.50432371927193
 1  2.53540467346735 -6.02391033403340  1.05721167806781
 1  2.02124286768677 -5.07365434153415 -0.36232968256826
 1  3.85297742004200 -4.39853913571357  2.22167717531753
 1  2.41320630733073 -3.22029765086509 -1.33206574757476
 1  3.83876849014901 -2.21087464676468 -1.42009447994800
 1  3.95144731873187 -4.03250697989799 -1.79769869576958
 1  4.85926596749675 -1.35940236423642  0.52000388388839
 1  5.43574210151015 -2.59137076947695  1.95081996229623
 1  6.77430495719572 -3.71007419951995  0.21045892989299
 1  6.41793195359536 -2.52347995699570 -0.96617721322132
 1  7.35456438773877 -0.82931625672567  0.41834908040804
 1  7.72639474237424 -2.03602018511851  1.58281266656666
 1  8.77759186848685 -2.07914618981898 -1.11370470857086
 1  8.84225874457446 -4.21201997339734 -0.09862365476548
 1  10.47690703150315 -3.65762996509651 -0.46498661216122
 1  9.78386744814481 -3.49147023852385  1.30507094979498
 1  9.28448759935994 -0.06041031483148  0.25600096389639
 1  9.94834493199320 -0.93304983888389  1.59125866586659
 1  11.79924506580658 -1.78609864176418  0.10726635343534
 1  11.21900798749875 -0.98890179507951 -1.36143747734773
 1  11.56159719321932  1.19892432163216  0.07454789958996
 1  12.28659348264826  0.16490768216822  1.18026630683068
 1  13.42047884858486  0.44365879817982 -1.67716995569557
 1  14.93919325762576 -0.76740495319532  0.59988566856686
 1  13.99458502950295 -1.70695971227123 -0.51934825632563
 1  15.06810779917992 -0.42155535373537 -1.18588548104810
 1  13.58451664586459  2.74399901900190 -0.38465025272527
 1  14.37606430673067  1.87352764196420  0.88075528942894
 1  16.14214587038704  1.52529114181418 -1.15604209490949
 1  14.88796437983799  2.30939485228523 -1.98453983368337
 1  15.15065647024702  4.31967734573457 -0.98642064016402
 1  16.15260803090309  3.73702034343434  0.36453635403540
 1  18.11692537393739  3.32953444464447 -1.02335141474147
 1  16.16209693009301  4.60253678257826 -3.10948330813081
 1  18.10655657915792  4.67728724202420 -3.12099670477048
 1  16.98497869806981  2.93267433743374 -3.25350338493849
 1  17.87199324652465  5.54839605710571  0.29421108530853
 1  18.78980650295030  5.52811696389639 -1.45848276267627
 1  16.98690024092409  6.15057456055606 -1.06346040734073
 1 -5.05621092249225 -7.85045447854785 -0.31612515021502
 1 -6.47084151445145 -7.00118720532053  0.61060456795680
 1 -4.78347651625163 -6.75770734633463  1.19353380998100
 8 -7.75719331093109  6.86286278707871 -0.53180096409641
 1 -9.17468576567657  6.15417106200620 -1.85930161296130

