%nproc=4
%Mem=4GB
# td=(NStates=1) iop(3/107=0140000000,3/108=0140000000) iop(3/107=0140000000,3/108=0140000000) CAM-B3LYP/6-31G(d,p) 

TD

0 1
12 -5.62992449904990  1.26726160046005  0.22843144834483
 6 -5.08814920212021 -2.17942640594059 -0.27308417521752
 6 -3.45355414451445  1.12331261606161  2.80920629392939
 6 -6.30356915261526  4.55637890209021  0.67968817761776
 6 -7.95882164926493  1.18629948064806 -2.37972564606461
 7 -4.37157141044104 -0.28384657645765  1.03509484828483
 6 -4.29302282978298 -1.57305100670067  0.68404075367537
 6 -3.17877100160016 -2.26431973477348  1.48572293599360
 6 -2.93634680568057 -1.33411630253025  2.60683723982398
 6 -3.65326275367537 -0.07149977767777  2.15269985518552
 6 -3.42863590299030 -1.77054049544955  4.00489318871887
 6 -1.95958115131513 -2.63976138543854  0.67452275777578
 6 -1.04122576607661 -3.53091067166717  1.37600118811881
 6  0.31174627512751 -3.81396523722372  0.50470866556656
 8  0.52679274357436 -3.34553186678668 -0.51219745394539
 8  1.11623846954695 -4.68614823212321  1.18781338863886
 7 -4.99891070737074  2.67424680158016  1.56796702840284
 6 -4.09682177197720  2.30218764046405  2.57159776307631
 6 -3.69858936263626  3.62734123632363  3.14053460966097
 6 -4.54900545324533  4.65762729102910  2.68641791309131
 6 -5.32801890609061  3.90883897909791  1.57643373567357
 6 -2.74482984608461  3.84604197999800  4.25266945634564
 6 -4.63223975457546  6.04754217471747  2.89921942674267
 8 -3.91247129512951  6.59626751475147  3.72297619751975
 7 -6.89205300520052  2.57805770157016 -0.64656631293129
 6 -6.96771948674867  3.89668928612861 -0.33474516321632
 6 -7.90018520492049  4.56842356715672 -1.14228833833383
 6 -8.47316676997700  3.62414934483448 -2.03687263166317
 6 -7.75452434293429  2.43290929972997 -1.71438738523852
 6 -8.39438242914292  5.90793070247025 -1.04846435523552
 6 -9.58693305660566  3.72431282948295 -3.24238887168717
 6 -8.89403085678568  4.02972111831183 -4.53786019001900
 7 -6.37729614861486 -0.07970298799880 -1.04590968296830
 6 -7.27410694029403 -0.01966803540354 -2.19645385608561
 6 -7.51421892909291 -1.29476117971797 -2.84183670627063
 6 -6.69868941774177 -2.13940351215121 -2.03139930563056
 6 -5.99150756615662 -1.40805437053705 -1.06836296669667
 6 -8.39341479927993 -1.77539766576658 -3.95273216941694
 6 -6.21844551165116 -3.52278786268627 -2.02173572867287
 8 -6.51801619711971 -4.51964966336634 -2.66687295239524
 6 -5.08038660076008 -3.52695074767477 -0.90463278307831
 6 -5.32344982238224 -4.67269271037104  0.08891256305631
 8 -5.70029580118012 -4.45650465856586  1.25669203260326
 8 -5.03124282248225 -5.82291348774877 -0.52258540314031
 6 -5.19112667686769 -6.95681753505351  0.39323115291529
 6  2.38256923012301 -4.92221334153415  0.54833878827883
 6  3.42048658365837 -3.99798995989599  1.04214211401140
 6  4.02453184338434 -3.12734560466047  0.16525016001600
 6  3.73336767566757 -2.91409635093509 -1.28300780528053
 6  5.23853027882788 -2.30149519711971  0.75406920572057
 6  6.56434130543054 -2.66433935913591  0.14912638003800
 6  7.69748507210721 -1.88411776727673  0.78922461296130
 6  9.04589541084108 -1.99212404600460  0.04634685218522
 6  9.53230961266127 -3.51645228562856  0.15524206650665
 6  10.04596517561756 -0.99215945334533  0.61830434593459
 6  11.35662296469647 -0.95362496939694 -0.14913367956796
 6  12.22650033863386  0.26650127762776  0.25484233183318
 6  13.46664912071207  0.39006387628763 -0.62141690489049
 6  14.49444774377438 -0.76172557515752 -0.38568271917192
 6  14.16268220782078  1.71035720732073 -0.24694394919492
 6  15.49346353675367  2.03012104030403 -1.03755875087509
 6  15.94776736113611  3.48179293209321 -0.64748536173617
 6  17.35023027212721  3.77317515911591 -1.41377531273127
 6  17.19474206390639  4.05621051275128 -2.96393861806181
 6  17.92256166226623  5.03673893919392 -0.89986944584458
 1 -2.98046376917692  1.09361363676368  3.87619808820882
 1 -6.32394037283728  5.65219059945994  0.83687267896790
 1 -8.57400780798080  1.24219452235223 -3.28089356815682
 1 -3.61081214601460 -3.22640795619562  1.96820488128813
 1 -1.80600772467247 -1.07014467606761  2.61430270637064
 1 -2.85963574267427 -2.52032519371937  4.77440098409841
 1 -3.52855364806481 -0.79928983338334  4.57894992479248
 1 -4.45576808850885 -2.15215429632963  3.81499545004500
 1 -2.43649896359636 -3.02066158345835 -0.37311793559356
 1 -1.32099993239324 -1.65172428872887  0.41631975357536
 1 -0.61477691119112 -3.05935723132313  2.26268048674868
 1 -1.38915363696370 -4.50861799299930  1.67689948794880
 1 -1.82438255205521  3.15343486788679  3.91072698239824
 1 -2.56762775287529  5.05986319231923  4.37563382108211
 1 -3.12521551655166  3.69935093259326  5.28900390639064
 1 -5.42202526642664  6.74345854025403  2.43508883028303
 1 -10.01021015451545  2.58282893999400 -3.32708596029603
 1 -10.34801559945995  4.40424426852685 -2.87369766046605
 1 -9.62307210701070  4.10621903590359 -5.37294249654965
 1 -8.61665117451745  5.21539128452845 -4.59314926992699
 1 -8.01508135713571  3.25968532733273 -4.67299722452245
 1 -7.96236382598260 -1.51083162606261 -4.89995099339934
 1 -8.35461644464447 -2.82901630673067 -3.99200183718372
 1 -9.28865894539454 -1.27865468886889 -3.90149705640564
 1 -4.08756611401140 -3.61914674127413 -1.46256954385439
 1  2.59238037103710 -5.91901984498450  0.91156711361136
 1  2.23966470987099 -4.87313428952895 -0.60846429602960
 1  3.69208133043304 -3.75384466626663  2.22178718631863
 1  2.60038502520252 -3.02344796589659 -1.68215075607561
 1  3.98602321562156 -1.88789234853485 -1.48303077357736
 1  4.25052722672267 -3.59097282648265 -2.09543846974697
 1  4.88217825872587 -1.41740816481648  0.23701558505851
 1  5.19981850915091 -2.50147177957796  1.91581646194619
 1  6.65974350105011 -3.82492568466847  0.10250813481348
 1  6.54405456585659 -2.38430603960396 -0.98650924642464
 1  7.44519345064506 -0.87127045214521  0.76867411291129
 1  7.79344144704470 -2.12514909800980  1.89275366066607
 1  8.91765587488749 -1.85995427062706 -0.86218955705571
 1  8.91150566926693 -4.24537330873087 -0.41460525292529
 1  10.34568390919092 -3.79469367146715 -0.65062517601760
 1  9.74226328772877 -3.55970706220622  1.23355379807981
 1  9.38758790939094 -0.11646592039204  0.36159152295230
 1  10.28730882838284 -1.17600413431343  1.70326986698670
 1  11.99225436673667 -1.93594362626263 -0.06928130133013
 1  11.06114220092009 -0.93994689958996 -1.09948128172817
 1  11.52226325982598  1.16167059625963  0.05505595039504
 1  12.26933175647565  0.25439663106311  1.25760404060406
 1  13.08717551825182  0.49859429172917 -1.66734897359736
 1  14.86151548984898 -0.50201841454145  0.71717739773977
 1  14.09674524552455 -1.70961997829783 -0.68318463996400
 1  15.31564255265527 -0.56189938813881 -1.07155404790479
 1  13.50102829702970  2.59609422852285 -0.40396218391839
 1  14.23009971027103  1.85209549874988  0.77513472737274
 1  16.25541719751975  1.28275688838884 -0.64165065576558
 1  15.28547413081308  2.03367728052805 -2.06390777047705
 1  15.42174357895790  4.20262564056406 -0.67703970207021
 1  16.28714148424843  3.56758339973997  0.42848274867487
 1  18.03882756415641  2.96939843104310 -1.32000107970797
 1  16.68332905330533  5.17088361726173 -3.27621998179818
 1  18.30191611511151  4.11730124342434 -3.38267287238724
 1  16.64061426162616  3.14822589258926 -3.36085412001200
 1  18.26924297149715  4.96469768726873  0.18265993019302
 1  18.68154567686769  5.50647479967997 -1.50391730613061
 1  17.10853240414041  5.86690619371937 -0.57987204850485
 1 -5.00466576797680 -7.78219765286529 -0.28418195589559
 1 -6.22737716801680 -7.05872295889589  1.04569807730773
 1 -4.33662183078308 -6.93337491309131  1.15483994059406
 8 -7.96988458005801  6.85235173597360 -0.45546333033303
 1 -9.37274557165716  6.22096774167417 -1.62602828562856

