%nproc=4
%Mem=4GB
# td=(NStates=1) iop(3/107=0140000000,3/108=0140000000) iop(3/107=0140000000,3/108=0140000000) CAM-B3LYP/6-31G(d,p) 

TD

0 1
12 -5.65350685728573  1.24395927022702  0.18100670587059
 6 -5.00701108830883 -2.15816427972797 -0.49984685148515
 6 -3.45152394149415  1.10632091689169  2.73446882018202
 6 -6.18231702740274  4.59516278047805  0.62393260206021
 6 -8.06207197429743  1.22536338703870 -2.24617229072907
 7 -4.49499375267527 -0.26180437223722  0.97548888768877
 6 -4.23000652815282 -1.53353705530553  0.56527887748775
 6 -3.28932205670567 -2.30511381418142  1.50430479417942
 6 -2.91101427242724 -1.31606449734974  2.60805736183618
 6 -3.66514394179418 -0.06867949564957  2.09154373957396
 6 -3.44698773817382 -1.68470191159116  3.94547724712471
 6 -2.10446563976398 -2.72375978527853  0.63694900040004
 6 -0.96210785428543 -3.62396997759776  1.30508409640964
 6  0.31610671117112 -3.92672651335133  0.54572276697670
 8  0.60641070537054 -3.50045735933593 -0.58550478467847
 8  1.14219106480648 -4.66904652195220  1.27323193049305
 7 -4.88596941324132  2.59800917781778  1.40523075477548
 6 -3.98018010781078  2.40333775547555  2.39564016731673
 6 -3.74607411111111  3.62762126432643  3.10228078427843
 6 -4.47336788948895  4.66209773807381  2.54285355665567
 6 -5.22488859305931  3.96628472367237  1.45120121242124
 6 -2.77539290239024  3.78166554235424  4.23893808320832
 6 -4.61226775737574  6.05037245774577  2.86223572837284
 8 -4.08259830783078  6.51167905590559  3.88965286518652
 7 -6.92524632453245  2.68417831363136 -0.68049970627063
 6 -6.97111982678268  4.01744136133613 -0.33875556425643
 6 -7.96887207360736  4.56928365316532 -1.19109321882188
 6 -8.49418887218722  3.65420235013501 -2.06472541694169
 6 -7.85536442694269  2.42523853265326 -1.68220416691669
 6 -8.35751874277428  5.94067397679768 -1.08026753555356
 6 -9.50402476577658  3.84724512271227 -3.09437407020702
 6 -8.93146460016002  3.94631277747775 -4.42950935493549
 7 -6.36063448244824 -0.08710372807281 -1.11997708970897
 6 -7.31361089068907  0.06405033643364 -2.06036024672467
 6 -7.61973948114812 -1.23138484208421 -2.72486500910091
 6 -6.64246379517952 -2.09202877467747 -2.22910907660766
 6 -5.80893930933093 -1.29772333743374 -1.22867899829983
 6 -8.69707516531653 -1.68210833683368 -3.62958985518552
 6 -6.23324699179918 -3.57496308020802 -2.02655621072107
 8 -6.67862225772577 -4.53455115351535 -2.57104336943694
 6 -5.02613117521752 -3.58663671627163 -1.00625294509451
 6 -5.36310378777878 -4.68521396249625  0.03314698649865
 8 -5.92615838743874 -4.53800280838084  1.16740310371037
 8 -4.91580127832783 -5.88253945034503 -0.40558370297030
 6 -5.43306087028703 -6.96148800210021  0.51469329912991
 6  2.43776474967497 -5.01812293249325  0.65416937133713
 6  3.45140967596760 -3.98021818271827  0.99652755255526
 6  4.11656104630463 -3.26748961906191  0.19717335233523
 6  3.79071341024102 -3.22088703000300 -1.30542004650465
 6  5.18046447224723 -2.33801884948495  0.70643444224422
 6  6.51649652095209 -2.69191211641164  0.14843631103110
 6  7.67720304390439 -1.67873722922292  0.69031472197220
 6  9.04996581788179 -2.02607744134413  0.20488270577058
 6  9.49573595529553 -3.47995863626363  0.53944048634863
 6  10.11052163126313 -0.93540377777778  0.59001151665167
 6  11.40728803120312 -0.90208981588159 -0.22459122532253
 6  12.26439412801280  0.35390001750175  0.13770061766177
 6  13.59099155495550  0.55708057795780 -0.55247001020102
 6  14.60169846884689 -0.68093749634963 -0.35535968686869
 6  14.27803374297430  1.83968013961396 -0.35636489128913
 6  15.46924111451145  2.13230125832583 -1.15471046604660
 6  16.09733231763176  3.49206395919592 -0.76791740494049
 6  17.40296554565457  3.87840568216822 -1.43094702990299
 6  17.22326491619162  4.10805569726973 -2.88235045924592
 6  18.11077048314831  4.98688395369537 -0.77791725062506
 1 -2.83991971477148  1.28000227562756  3.53324379277928
 1 -6.19567754655466  5.63032841324132  0.75012400410041
 1 -8.68343875107511  1.19523982688269 -3.10463594239424
 1 -3.87664872967297 -3.30417573297330  1.91935999679968
 1 -1.91081820572057 -1.08037569916992  2.75067634373437
 1 -3.00575035413541 -2.58987214841484  4.30488403240324
 1 -3.41922271497150 -1.03901380578058  4.68691072087209
 1 -4.65964847654766 -1.83399248014801  3.89519346984698
 1 -2.45159047274727 -3.44766428372837 -0.25476610041004
 1 -1.71975980838084 -1.68692780908091  0.10276839843984
 1 -0.61197663116312 -3.25716701230123  2.28280249894990
 1 -1.43295801740174 -4.65951308250825  1.61444324232423
 1 -1.67685779957996  3.34377390179018  4.01486739643964
 1 -2.86421741184118  4.78012521852185  4.70089634733473
 1 -3.21150414541454  3.02337333483348  4.94090909690969
 1 -5.45294835873587  6.64152834723472  2.40402572397240
 1 -10.08293742724272  2.88986964406441 -2.96826007770777
 1 -10.04096489438944  4.63039688378838 -2.75811610231023
 1 -9.64676447624763  4.10885929992999 -5.39715491779178
 1 -8.33267277667767  4.88677842324232 -4.55325528052805
 1 -8.21878172717272  3.08592795159516 -4.73057298209821
 1 -8.49970756035604 -1.34937548044804 -4.75772677097710
 1 -8.38775975897590 -2.74551795689569 -4.09923256025603
 1 -9.70881096059606 -1.45673249664966 -3.28081498819882
 1 -4.16651400880088 -3.87061188778878 -1.37758104500450
 1  2.66084721772177 -6.04610255325533  1.02140809770977
 1  2.33798454185419 -5.21811878797880 -0.42831628122812
 1  3.66641876417642 -3.74845412721272  2.12068707630763
 1  2.87708269496950 -3.64448006910691 -1.31359390039004
 1  4.05243985728573 -2.21700525982598 -1.86497896839684
 1  4.62671484548455 -3.85098882808281 -1.81138006390639
 1  4.97803784468447 -1.33120954495450  0.32502438593859
 1  5.19761828912891 -2.53298493089309  1.79338421872187
 1  6.84397192389239 -3.76424961706171  0.45036292029203
 1  6.41135129552955 -2.60113772277228 -0.86312690819082
 1  7.38995792709271 -0.65362868796880  0.28681592709271
 1  7.63720582348235 -1.82232881598160  1.82097648294830
 1  8.81597570687069 -1.99821809700970 -0.96944028212821
 1  8.81226574527453 -4.34381315271527  0.20325653325332
 1  10.50774011481148 -3.71740594269427  0.14570445694569
 1  9.45731479287929 -3.52390348184818  1.62439288198820
 1  9.42263141374138 -0.05162943674367  0.59472483628363
 1  10.26098619611961 -0.98199473337334  1.79903944394439
 1  12.10314545584558 -1.61153118501850  0.09740536733673
 1  11.02160824752475 -0.95044794969497 -1.38184951855185
 1  11.67205823932393  1.20376480568057 -0.06945650085008
 1  12.44472929622962  0.44198538993899  1.26826510671067
 1  13.39639644034403  0.42435686798680 -1.65360759945995
 1  14.59709904820482 -0.73291150385038  0.78822450245025
 1  14.14112968396840 -1.59308832513251 -0.72957927942794
 1  15.54570555895590 -0.61069426762676 -0.70398729122912
 1  13.47223541774177  2.42042666176618 -0.36371815951595
 1  14.53715041534153  1.95386567576758  0.68176539043904
 1  16.39405106090609  1.33315192789279 -1.10796728742874
 1  15.09005458885889  2.12608652145215 -2.17245862556256
 1  15.38641004560456  4.21994737273727 -0.84217621572157
 1  16.23937670777078  3.22662930433043  0.34170407080708
 1  18.06707038843884  2.97076856805681 -1.34749382898290
 1  16.54556527692769  4.92574910381038 -2.87084944474447
 1  18.24811073457346  4.46031554485449 -3.39489409450945
 1  16.76313651385139  3.18999006900690 -3.40037807240724
 1  18.18357440464046  4.71936315381538  0.42328399259926
 1  19.16539406170617  5.24118827102710 -1.18691560596060
 1  17.54374592549255  5.87478698179818 -0.61133519481948
 1 -5.26985228662866 -7.87265669876988  0.09961642394239
 1 -6.54290872117212 -6.71398848544854  0.60829433693369
 1 -5.07220538913891 -7.03664524012401  1.51870632723272
 8 -7.91428902050205  6.76749325012501 -0.19246703070307
 1 -8.88107640474047  6.28230387528753 -1.99902558535854

