%nproc=4
%Mem=4GB
# td=(NStates=1) iop(3/107=0140000000,3/108=0140000000) iop(3/107=0140000000,3/108=0140000000) CAM-B3LYP/6-31G(d,p) 

TD

0 1
12 -5.58858036463646  1.20552542684268  0.10289889508951
 6 -5.03786417361736 -2.10896936023602 -0.35696256305631
 6 -3.33823261236124  1.14195448024802  2.73754912821282
 6 -6.18381717741774  4.61187445164516  0.64715492429243
 6 -8.04984075117512  1.15580643134313 -2.32222989648965
 7 -4.32694694799480 -0.22782097389739  0.98278961776178
 6 -4.25647917541754 -1.57575127672767  0.68356070567057
 6 -3.14752787728773 -2.28183148594859  1.55025938963896
 6 -2.86147931893189 -1.28155104600460  2.60441699779978
 6 -3.54231165856586 -0.02881550925092  2.17267185238524
 6 -3.34433747314731 -1.74477791919192  3.93171587098710
 6 -1.97499269246925 -2.67974538383838  0.58766407190719
 6 -0.72319396289629 -3.24630221082108  1.44162775077508
 6  0.37566266676668 -3.78416225692569  0.50374856955696
 8  0.62456252055206 -3.32618993259326 -0.60365659985999
 8  1.09890673637364 -4.71016063336334  1.15935054235424
 7 -4.96997781408141  2.58114749164916  1.44203443514351
 6 -4.04353644344434  2.41883930563056  2.49308991229123
 6 -3.82073157685769  3.70867937013701  3.21729228542854
 6 -4.62525307800780  4.56243777207721  2.53306257755776
 6 -5.30687679187919  4.01372946814681  1.39628572087209
 6 -2.91985734883488  3.76254363016302  4.36065025442544
 6 -4.67972450305030  5.98602602310231  2.89662916771677
 8 -4.02567261526153  6.55384327232723  3.81818571847185
 7 -6.79335313521352  2.79953984978498 -0.73052470877088
 6 -6.91461417621762  3.93998361556156 -0.49638132683268
 6 -7.94668985538554  4.54816154095410 -1.21551566106611
 6 -8.40549000230023  3.60787771767177 -2.06859580398040
 6 -7.78123701420142  2.36762277107711 -1.64552049854985
 6 -8.25384837573757  6.06469637903790 -1.23824333313331
 6 -9.61242560586059  3.75361575977598 -3.07843247604760
 6 -9.07952940664067  4.01266941314131 -4.54719112311231
 7 -6.39084750375037 -0.11356637433743 -1.10683577557756
 6 -7.43912344194419 -0.09776584518452 -2.03311752245225
 6 -7.54035154235424 -1.40489219281928 -2.66194871747175
 6 -6.69401895069507 -2.21863143494349 -1.97695386108611
 6 -6.01380979637964 -1.37041060616062 -1.06243237363736
 6 -8.46750220802080 -1.66812693869387 -3.82059895609561
 6 -6.33782744984499 -3.58576416031603 -1.91283483858386
 8 -6.70820521602160 -4.59788748714872 -2.50764702980298
 6 -5.10076863896390 -3.60706875947595 -0.79644196399640
 6 -5.46239371677168 -4.66676211731173  0.23617728952895
 8 -5.84023979557956 -4.61427043514351  1.39405576897690
 8 -5.05057475567557 -5.83032422882288 -0.32343548814881
 6 -5.27176474067407 -6.98456030933093  0.47380921072107
 6  2.40348132133213 -5.09455057525753  0.51869582398240
 6  3.45916045104510 -4.11829199009901  0.90850875067507
 6  4.03394278447845 -3.24526739683968  0.13018665366537
 6  3.71878621752175 -3.11112605390539 -1.37445695019502
 6  5.27485391119112 -2.38207325492549  0.61484528332833
 6  6.50412528382838 -2.66609953515352 -0.01219975257526
 6  7.58125344894489 -1.74824417991799  0.43147883838384
 6  8.94553537483748 -1.94738957255726 -0.17006478897890
 6  9.55865224692469 -3.32041268166817  0.08587512981298
 6  9.90822140124012 -0.74483472087209  0.23821633713371
 6  11.33420072247225 -0.83164277117712 -0.25850461666167
 6  12.07402509110911  0.44266889438944  0.06960380798080
 6  13.54192664846485  0.35167003690369 -0.55221998519852
 6  14.41664996399640 -0.85704510711071 -0.16064021492149
 6  14.29866580618062  1.67785395699570 -0.14283353815382
 6  15.58104229462946  1.96696472467247 -0.91280627562756
 6  16.12059464386439  3.38369312211221 -0.56333694689469
 6  17.44159940904090  3.87125496709671 -1.29777371257126
 6  17.24848743844384  3.98782367406741 -2.76626885108511
 6  17.98593799989999  5.15031029632963 -0.55422488138814
 1 -2.44023974677468  0.97552182758276  3.58015848424843
 1 -6.26311429022902  5.63093847424742  0.74003299499950
 1 -8.57189759695970  1.08105840874087 -3.09643512231223
 1 -3.48279934473447 -3.27690300570057  1.78527658845885
 1 -1.62413953785379 -1.16017367896790  2.56985826192619
 1 -2.98010778987899 -2.66801996319632  4.30380392439244
 1 -3.23284407710771 -1.02623252765277  4.61847387718772
 1 -4.47560007170717 -1.84287336823682  3.91304525502550
 1 -2.34172948664867 -3.35731524882488 -0.16559718351835
 1 -1.47481531393139 -1.66293540984098  0.03676179777978
 1 -0.33517895139514 -2.58077937353735  2.12714693339334
 1 -1.06569129072907 -4.18635576677668  1.88677047504750
 1 -1.83966408020802  3.63440296469647  3.93282919261926
 1 -2.86774776487649  4.79239644564456  4.67793405110511
 1 -3.25562855785579  2.95734673217322  5.02871787778778
 1 -5.43862692659266  6.49481367576758  2.32528785018502
 1 -10.18777791129113  2.86824748184818 -3.03906715841584
 1 -10.30332113001300  4.50578442254225 -2.73672396309631
 1 -9.80103990379038  3.74494290829083 -5.41393659595960
 1 -8.79699920932093  5.21573131853185 -4.49059901490149
 1 -8.08016786578658  3.27233659245925 -4.65641556635664
 1 -8.48549613921392 -0.72495303820382 -4.52414341264126
 1 -7.94804578757876 -2.68714211931193 -4.24515715271527
 1 -9.40013009250925 -1.64554137753775 -3.20935784248425
 1 -4.30612797019702 -3.92482730933093 -1.40144343124312
 1  2.48932006500650 -6.16231417441744  0.77207316421642
 1  2.18005874927493 -5.09321629772977 -0.52544599419942
 1  3.56072819511951 -3.93581286308631  2.02547755535554
 1  2.42060704740474 -3.04076969806981 -1.53490603160316
 1  4.18025263856386 -2.30799435873587 -1.91741421192119
 1  4.16350852485249 -3.95563929312931 -1.99888881478148
 1  5.02735277617762 -1.30315673967397  0.36892877637764
 1  5.22806133343334 -2.64543617601760  1.71386626692669
 1  6.94930245694569 -3.74046723882388  0.17724560856086
 1  6.49184934533453 -2.84032164116412 -1.24462505800580
 1  7.18445737703770 -0.52933625872587  0.41290853635364
 1  7.81884398729873 -1.95171175427543  1.52724711001100
 1  8.77030113941394 -1.85370364556456 -1.13693703180318
 1  8.78870338903890 -4.13531230263026 -0.13022681508151
 1  10.48895823662366 -3.42745694779478 -0.38272838633863
 1  9.77227628902890 -3.56859795129513  1.06685712841284
 1  9.37178632923292  0.05655138133813  0.07313267706771
 1  10.04526462396240 -0.60843737763776  1.35221476147615
 1  11.76894203550355 -1.81975200710071  0.07421304810481
 1  11.33022910961096 -0.82852575747575 -1.46413774737474
 1  11.59667070057006  1.45201963116312 -0.08015757095710
 1  12.28941376467647  0.34308549995000  1.08317659785979
 1  13.36152295299530  0.53891832413241 -1.66057829652965
 1  14.75901523982398 -1.09166737943794  0.98786446644665
 1  13.88460403140314 -1.66079509580958 -0.32770909240924
 1  15.21493248164817 -0.76956015421542 -0.84410130263026
 1  13.71515971017102  2.59496411551155 -0.34008579627963
 1  14.54641134143414  1.60393068226823  0.97176439033903
 1  16.39430108590859  1.17587620032003 -0.73985047574757
 1  15.40466605000500  2.12081599439944 -1.89365074477448
 1  15.40110151475148  4.12974835283528 -0.83703570167017
 1  16.21991476157616  3.58596523792379  0.59365926632663
 1  18.24175785718572  3.03184467566757 -1.25704478407841
 1  16.67409813021302  5.02746927582758 -2.82228458825883
 1  18.27311323482348  4.02692220552055 -3.30218482358236
 1  16.43782398259826  3.10234130413041 -3.17799583418342
 1  18.08434448164816  5.11744296179618  0.54858652285229
 1  18.98128565086509  5.71999615181518 -0.83677059145915
 1  17.43661521242124  5.97006650975097 -0.93503756505651
 1 -5.02586788818882 -7.78734816791679  0.02175863816382
 1 -6.33266769706971 -7.00803789038904  0.67484099159916
 1 -4.52033020162016 -7.01898347394739  1.43667812441244
 8 -7.81144873647365  6.83613011381138 -0.35971375537554
 1 -9.04107240434043  6.54075972087209 -2.06143182598260

