%nproc=4
%Mem=4GB
# td=(NStates=1) iop(3/107=0140000000,3/108=0140000000) iop(3/107=0140000000,3/108=0140000000) CAM-B3LYP/6-31G(d,p) 

TD

0 1
12 -5.48176968356836  1.16899177347735  0.15310391559156
 6 -5.02119250645065 -2.14859332263226 -0.35392225902590
 6 -3.40694948404840  1.14463474827483  2.73691906520652
 6 -6.23167196289629  4.57537080128013  0.68801901070107
 6 -8.09565533263326  1.16128697939794 -2.33510118361836
 7 -4.39194344764477 -0.27877606940694  1.02839417821782
 6 -4.24191771927193 -1.63119682128213  0.63410576017602
 6 -3.18557168166817 -2.28555185798580  1.47626198989899
 6 -2.89955312631263 -1.32749564046405  2.65340189628963
 6 -3.59209663706371 -0.07534016171617  2.08836342154215
 6 -3.62786582598260 -1.88700214161416  3.89585228462846
 6 -1.94674986818682 -2.52102951225122  0.58900420592059
 6 -0.98535017851785 -3.43793137373737  1.34951853985399
 6  0.30595569606961 -3.86155999669967  0.47783597829783
 8  0.57376744104410 -3.39901721532153 -0.61464769896990
 8  1.11650849654966 -4.69958957625763  1.20027463476348
 7 -4.91400221652165  2.60408978587859  1.49100933263326
 6 -4.00619270907091  2.43827124882488  2.47613821712171
 6 -3.61425092879288  3.64042254445445  3.18358891509151
 6 -4.48805935863586  4.60153168146815  2.57006627792779
 6 -5.30317642184218  3.97371546674667  1.47475356765677
 6 -2.61044640774077  3.84628200400040  4.25732992239224
 6 -4.57136366696670  5.98817623812381  2.91775127992799
 8 -4.00761080908091  6.57929581758176  3.79678357825783
 7 -6.79905370527053  2.62882277807781 -0.71385304160416
 6 -6.96396911171117  3.96658627582758 -0.35647733643364
 6 -7.91370655705571  4.59872659745975 -1.19857396689669
 6 -8.44358381168117  3.57413434333433 -2.09929887428743
 6 -7.80519941044104  2.38415442424242 -1.63714966146615
 6 -8.26634962586259  6.07325723512351 -1.19847935673567
 6 -9.43650801410141  3.84532493069307 -3.15376000880088
 6 -8.82224367806781  3.93384153035303 -4.62108851285129
 7 -6.39283770277028 -0.17751276897690 -1.07896298829883
 6 -7.38064759435944 -0.05755182378238 -1.92662687338734
 6 -7.62436994419442 -1.31674337793779 -2.54464698729873
 6 -6.69915946474647 -2.17931750355036 -2.03690985668567
 6 -5.90889930533053 -1.38807237233723 -1.10899703010301
 6 -8.46314177197720 -1.66909703570357 -3.75629252545255
 6 -6.22408607570757 -3.57327291119112 -1.97150070517052
 8 -6.54283867936794 -4.58926662506251 -2.59116538163816
 6 -5.02636119821982 -3.58140619321932 -0.88599091889189
 6 -5.36701417881788 -4.62832827392739  0.23276694849485
 8 -5.71325709730973 -4.37121612971297  1.41562792619262
 8 -5.20421011921192 -5.77782897929793 -0.39318246284628
 6 -5.55440300450045 -7.05225707900790  0.38163999379938
 6  2.34442541574157 -5.02866398659866  0.62800675507551
 6  3.38886342134213 -4.07649781068107  0.94379227902790
 6  4.08453784398440 -3.20760363046305  0.14541817681768
 6  3.91130546944694 -3.16448138943894 -1.41629113361336
 6  5.21957838363836 -2.27242228982898  0.63239703850385
 6  6.51132600390039 -2.66482940814081 -0.01114964756476
 6  7.59418474207421 -1.75502485798580  0.69373506400640
 6  8.97485830713071 -2.02203703730373 -0.03153093559356
 6  9.48576495819582 -3.53822446284628  0.30496703900390
 6  10.00138071717172 -0.92421265866587  0.36561907740774
 6  11.33539084148415 -0.92838244514451 -0.34379314551455
 6  12.25837352595259  0.09100372787279  0.17187403500350
 6  13.55793824962496  0.43076794669467 -0.58103286648665
 6  14.54829312831283 -0.68939834243424 -0.30809496039604
 6  14.21449738933893  1.76604277587759 -0.19525878067807
 6  15.39988417881788  2.15905393359336 -1.04779977497750
 6  15.96631921632163  3.56475122792279 -0.59895050825082
 6  17.24681993109311  3.94759260086009 -1.27425136033603
 6  17.23261585128513  4.07140203190319 -2.80627285148515
 6  17.88048745484548  5.21662692799280 -0.69546900580058
 1 -2.76787251005101  1.18503277867787  3.64638510691069
 1 -6.47575555435544  5.55976135653565  0.62865185688569
 1 -8.82042244944494  0.94843514641464 -3.19134461326133
 1 -3.68530959575958 -3.12162747814781  1.98383644444444
 1 -1.94272139603960 -1.01131879347935  2.74963623972397
 1 -3.00553033213321 -2.79633279447945  4.25590913491349
 1 -3.75387618031803 -1.01351125552555  4.81554358415842
 1 -4.63673618531853 -2.21557063796380  3.89827377787779
 1 -2.17373268696870 -2.89005852315231 -0.66010663446345
 1 -1.50118795119512 -1.56819593589359  0.20699882148215
 1 -0.66210164366437 -2.79366066166617  2.22682690139014
 1 -1.60007472907291 -4.30393752495250  1.82261405940594
 1 -1.79999011281128  3.56632615701570  4.03549945964596
 1 -2.62034302440244  4.92660986698670  4.40580683838384
 1 -3.04016701170117  3.40651164866487  5.18831383738374
 1 -5.18134119801980  6.49500369476948  2.12405772717272
 1 -10.18891802530253  2.98772943004300 -2.85767901960196
 1 -9.98370916881688  4.90939478357836 -3.12922321302130
 1 -9.70752055185519  4.15224363836384 -5.27701290359036
 1 -8.41841135053505  4.82566231163116 -4.80433038803880
 1 -8.35533538253825  3.01901125992599 -5.10123004780478
 1 -8.45320290989099 -0.98174871777178 -4.73805480378038
 1 -8.38262924592459 -2.76448985408541 -4.05935857285729
 1 -9.64461454095410 -1.52154897829783 -3.61120802750275
 1 -4.12743010041004 -3.98898372497250 -1.39402268916892
 1  2.58580971397140 -6.09360730373037  0.98692464936494
 1  2.14438518191819 -5.17921489758976 -0.49891334093409
 1  3.69481160346035 -4.21087036883688  2.00450545814581
 1  2.79234422112211 -3.37888350945095 -1.54522706370637
 1  4.41763637693769 -2.13050660996100 -1.76077854835484
 1  4.58160033403340 -4.08606233543354 -1.76555548144815
 1  4.81454149504951 -1.26673309730973  0.31207309080908
 1  5.11033956125613 -2.13765539793979  1.68321320162016
 1  6.72270979767977 -3.85460865296530  0.17692557655766
 1  6.44125428582858 -2.51241885088509 -0.98306890239024
 1  7.26036496779678 -0.73400672577258  0.52118936443644
 1  7.61516361926193 -1.85673225632563  1.69479386468647
 1  8.65413952325233 -1.92255053025303 -1.03646698479848
 1  8.63790830953095 -4.35265403680368  0.16746295389539
 1  10.47359670047005 -3.46553075517552 -0.18802891639164
 1  9.77477653905390 -3.78375946744674  1.30865130783078
 1  9.45039419001900  0.06225195139514  0.38221358515852
 1  10.16840693819382 -1.06681321522152  1.38033757375738
 1  11.81177631893189 -1.79284931683168 -0.28189256245625
 1  11.17828391509151 -0.73435634053405 -1.37120845444544
 1  11.45670670417042  1.01430585978598  0.00771121592159
 1  12.45166999029903 -0.10975978457846  1.16908518871887
 1  13.30008680938094  0.26087051935194 -1.53956619531953
 1  15.24524386268627 -0.71783999669967  0.76959263926393
 1  13.95974154515451 -1.62605162146215 -0.40549687118712
 1  15.31460244864486 -0.70055325352535 -1.10852774527453
 1  13.37585577977798  2.52544716381638 -0.21614340204020
 1  14.58635533583358  1.73055334453445  0.94359157305731
 1  16.17832948874888  1.42885149784979 -1.06667315801580
 1  15.28946452985299  2.09256316911691 -2.11914329402940
 1  15.20940234483449  4.44551992999300 -0.66775877397740
 1  15.69482225232523  3.55125176657666  0.45670557095710
 1  17.92596627802780  3.30273176437644 -0.96447552715272
 1  16.55447616801680  4.72608913781378 -3.20340270007001
 1  18.30397632113212  4.33009252255226 -3.08463306840684
 1  16.86132633283328  3.19106017601760 -3.26447448204820
 1  17.95865191239124  5.09258047554755  0.44898656285629
 1  18.82284980728073  5.68646279847985 -1.20285720012001
 1  17.21345289618962  6.07626712981298 -0.83337739903990
 1 -5.20782608400840 -7.87775720882088 -0.20427396509651
 1 -6.74040847114712 -7.10883797039704  0.37184069156916
 1 -5.32255042364236 -6.89056063166317  1.44776923352335
 8 -7.87058465006501  6.84613111391139 -0.34412219621962
 1 -8.92521081818182  6.37928357325733 -2.04752043484348

