%nproc=4
%Mem=2GB
# td=(NStates=1) iop(3/107=0140000000,3/108=0140000000) iop(3/107=0140000000,3/108=0140000000) CAM-B3LYP/6-31G(d,p) 

TD

0 1
12 -6.78377094919492  0.58170731483148  0.15593321282128
 6 -4.47661476797680 -1.84070249204920  0.35991626862686
 6 -4.10886270167017  2.73130476357636  0.89423230483048
 6 -9.04442714741474  3.15792981708171  0.06788728702870
 6 -9.26585468306831 -1.69662269186919 -0.66631669036904
 7 -4.61492656455646  0.49293869156916  0.50475950805080
 6 -3.96787405300530 -0.69299900670067  0.54478503390339
 6 -2.59365278387839 -0.54478623782378  0.91825388768877
 6 -2.40736070187019  0.90971111991199  1.29053121562156
 6 -3.90268653155316  1.33498358355836  0.97347212191219
 6 -1.82793907960796  1.20573236913691  2.73227779057906
 6 -1.62432118051805 -1.04559712311231 -0.17184585828583
 6 -0.15415353365337 -1.12181388798880  0.42232130563056
 6  0.85784686388639 -1.32392962986299 -0.66991516531653
 8  0.79555962406241 -0.91076368886889 -1.79394038423842
 8  1.99928021462146 -2.11506180478048 -0.23302822532253
 7 -6.46245798799880  2.47791816181618  0.36469021692169
 6 -5.46715727662766  3.20200884408441  0.66062235843584
 6 -5.90100431563156  4.78158784358436  0.75237010561056
 6 -7.31211192459246  4.80221631213121  0.54991157445745
 6 -7.72477418131813  3.42671147954795  0.25782061346135
 6 -4.93194811511151  5.73599102960296  1.05477314531453
 6 -8.16190775207521  6.02567948804881  0.39738926262626
 8 -7.56026994319432  7.07247886448645  0.44085194199420
 7 -8.60873442694269  0.74167502670267 -0.37263991309131
 6 -9.44712838523852  1.91521625692569 -0.49561061336134
 6 -10.92914954525453  1.66315618671867 -0.86186196739674
 6 -10.83675803330333  0.24674557895790 -1.05730658615862
 6 -9.50982264556456 -0.27053521672167 -0.64841691839184
 6 -11.73151992729273  2.64689088218822 -0.92324697549755
 6 -12.00864398489849 -0.66348991129113 -1.37523565726573
 6 -12.05360222232223 -1.01707387258726 -2.87900069476948
 7 -6.85964244714472 -1.34714727602760 -0.16037868236824
 6 -7.93033569516952 -2.22928292499250 -0.42593579157916
 6 -7.51962954805481 -3.57694501690169 -0.50382139223922
 6 -6.32040766196620 -3.68732789368937 -0.20857911851185
 6 -5.83427971667167 -2.21138995349535  0.00578676297630
 6 -8.43375189868987 -4.75657303510351 -0.70657347324732
 6 -4.99675588008801 -4.34617041514151  0.09741776747675
 8 -4.88103985268527 -5.49616015431543  0.27346785338534
 6 -3.95156888228823 -3.35314587378738  0.40271491869187
 6 -3.22992650355035 -3.52574875037504  1.84803451645165
 8 -3.82639787988799 -3.71225796059606  2.79625829562956
 8 -1.91154282918292 -3.40037634293429  1.80844078327833
 6 -1.29940846294629 -3.74249934003400  3.01813623882388
 6  2.99310120292029 -2.45196037293729 -1.36320756485649
 6  4.09128289568957 -1.61810881198120 -0.91884741704170
 6  5.14130488588859 -1.52286915831583 -1.90559676127613
 6  5.11120510431043 -2.33428656335634 -3.24566154835484
 6  6.16802062666267 -0.45152280518052 -1.75110166866687
 6  7.31313000700070 -0.89789557165717 -1.38389512681268
 6  8.27554011431143  0.21369700430043 -0.92472095259526
 6  9.73876696609661 -0.36032295259526 -0.19189749544955
 6  9.37173468976898 -0.73233204790479  1.30867523632363
 6  10.81554388438844  0.68725357955796 -0.07115227682768
 6  12.29244451495150  0.11196250345035  0.18678698989899
 6  13.19260080268027  1.28700597529753  0.29414231263126
 6  14.69827616281628  0.53674695279528  0.61527618971897
 6  14.73576856495650 -0.01420370087009  2.08173809780978
 6  15.82801242964297  1.48883378537854  0.46716992229223
 6  17.13132261036104  0.81933715811581  0.04228735483548
 6  18.23211275867587  1.85590278147815 -0.01490163696370
 6  19.54334653575357  1.05360385518552 -0.28284836853685
 6  19.62407220852085  0.52993842414241 -1.81036682788279
 6  20.91426859575958  2.05314673267327 -0.16376147204721
 1 -3.18754939323932  3.55224647564757  0.77359676137614
 1 -9.47822180468047  3.91719080418042  0.22951931803180
 1 -9.88001049264926 -2.24519491879188 -0.97546037193719
 1 -2.20644316111611 -1.12523014081408  2.06418646694669
 1 -1.60436977557756  1.63444392059206  0.65756220962096
 1 -0.53388477217722  1.00665898029803  3.00563127422742
 1 -1.66776495039504  2.27505608200820  2.88530464826483
 1 -2.37407974047405  0.43974185948595  3.63997986708671
 1 -2.00790981128113 -1.96498777177718 -0.71544933173317
 1 -1.41247641664166 -0.25867734063406 -1.05040483128313
 1  0.10252825112511 -0.12419385268527  1.25658152335234
 1 -0.27861158095810 -2.27198353215322  1.04241447354735
 1 -4.21245577597760  5.89205703360336  0.23124808250825
 1 -5.33940422102210  6.61123379927993  1.20818772487249
 1 -4.30159118731873  5.40419938093809  2.04238201050105
 1 -9.48800181428143  6.07114222342234  0.10535415961596
 1 -12.13351290489049 -1.75271613911391 -0.81421584878488
 1 -13.16118233323332 -0.14194779497950 -1.28172580898090
 1 -12.87607543064307 -1.59972208760876 -3.24355147224722
 1 -12.10617758155816  0.07061448294830 -3.36202837233723
 1 -10.89555638003800 -1.39491280828083 -3.03247985538554
 1 -8.81350053335333 -4.82850940654065 -1.72822505050505
 1 -7.92734794939494 -5.72781279387939 -0.68808846074607
 1 -9.10012729272927 -4.74259622082208  0.17694230373037
 1 -3.13083266466647 -3.87049077397740 -0.09992829962996
 1  3.14651626702670 -3.63867114091409 -1.09121483858386
 1  2.67623191199120 -2.49802571757176 -2.28279851515152
 1  4.24323165086509 -1.05186793519352 -0.03834023242324
 1  4.78983204020402 -1.78278175067507 -4.32737285228523
 1  6.18601217961796 -2.52208088348835 -3.25430665456546
 1  4.50256408380838 -3.56835945024502 -2.72949713351335
 1  6.23553397529753 -0.09630429302930 -2.67000961816182
 1  5.95832094149415  0.25846139393939 -1.15326959035904
 1  7.21354253315332 -1.37074527162716 -0.48731701010101
 1  7.72246764516451 -1.33049183948395 -2.23855333123312
 1  8.70084221562156  0.82994358915892 -1.92026481178118
 1  8.00012851095109  0.51636682488249 -0.24887917951795
 1  10.47699014611461 -1.35807325102510 -0.73995115271527
 1  8.72058430273027 -1.50079889558956  1.36758511931193
 1  10.45697176657666 -1.17774165536554  2.14119601100110
 1  8.91907511911191  0.21373015061506  1.91800310541054
 1  10.77231086888689  1.02541530143014 -1.31073824542454
 1  10.49254900150015  1.69542841844185  0.54831871217122
 1  12.46423396559656 -0.45020746024602  1.09006268956896
 1  12.47575972997300 -0.67565578617862 -0.64666766426643
 1  13.33927879787979  2.11393093809381 -0.70904980958096
 1  12.94996704150415  2.18213246454645  1.13839962936294
 1  14.84368579437944 -0.26349386538654 -0.29297748894890
 1  14.43173307320732  0.77067746324632  2.96376914991499
 1  14.14985225872587 -1.08635630753075  1.94773227132713
 1  15.75198223132313 -0.27653123622362  2.53126960466047
 1  15.77569870477048  2.11335132853285 -0.41702167686769
 1  16.17668170077008  2.25551508700870  1.33299162236224
 1  17.55008632373237  0.09655282588259  0.72337252395240
 1  17.25015253945394  0.20595876507651 -0.85629700710071
 1  17.99129413651365  2.78404495229523 -0.77641062936294
 1  18.57179717581758  2.51352525942594  1.09148581908191
 1  19.71193375457546  0.32486533273327  0.59239259005901
 1  19.52478079607961  1.34176922652265 -2.41523364856486
 1  20.77607189718972  0.33158135633563 -2.12828696209621
 1  18.73317604460446 -0.46719443784378 -1.70767884258426
 1  20.84255103370337  2.45577515661566  0.73170392399240
 1  21.79618735903590  1.40180676337634 -0.17076979197920
 1  21.07263391629163  2.87957544474447 -0.72281707800780
 1  0.05583995889589 -3.71100384978498  2.73710205820582
 1 -1.85282496349635 -4.90485775947595  3.12884352095210
 1 -1.65831984528453 -3.00328880598060  4.06523067626763
 8 -11.74667304160416  3.83541834103410 -0.61830364406441
 1 -12.97743825532553  2.37347858795880 -1.19778038303830

