%nproc=4
%Mem=4GB
# td=(NStates=1) iop(3/107=0140000000,3/108=0140000000) iop(3/107=0140000000,3/108=0140000000) CAM-B3LYP/6-31G(d,p) 

TD

0 1
12 -5.58786029262926  1.28397327162716  0.19203780898090
 6 -4.91337172437244 -2.05959442274227 -0.40273714051405
 6 -3.36880566966697  1.14989527432743  2.72165753905391
 6 -6.18342713841384  4.59425268946895  0.65851606040604
 6 -7.95872163926393  1.16750760146015 -2.46145381888189
 7 -4.25162941624162 -0.15962415421542  0.95398673747375
 6 -4.12628615611561 -1.56563026462646  0.61099344894489
 6 -3.12133525802580 -2.23012631543154  1.50037440114011
 6 -2.82610578157816 -1.24790768166817  2.62850940704070
 6 -3.52871029842984  0.00336770907091  2.18439302450245
 6 -3.44067710711071 -1.68778221962196  3.94816751615162
 6 -1.99574476767677 -2.75276268556856  0.63362866836684
 6 -0.95318696219622 -3.61702928352835  1.33224681268127
 6  0.25527062756276 -4.00743458415842  0.55948414311431
 8  0.43957402170217 -3.63556086968697 -0.63687992219222
 8  1.09762660836084 -4.68487810511051  1.27278188548855
 7 -4.95647646394639  2.64497387428743  1.52973320502050
 6 -4.00568265806581  2.41398882058206  2.46653725702570
 6 -3.76836634033403  3.63773227542754  3.17953851005100
 6 -4.44187474017402  4.64350587888789  2.53799307060706
 6 -5.27581368556856  4.02536063126313  1.46969306160616
 6 -2.83021838493849  3.79797717351735  4.33649783918392
 6 -4.55801233183318  6.02845026552655  2.91191069586959
 8 -3.98001804980498  6.47776566456646  3.80739463936394
 7 -6.86171997189719  2.59229912571257 -0.73425508180818
 6 -6.92292500730073  3.88157777497750 -0.31156284498450
 6 -7.94027921432143  4.53324004880488 -1.16902101160116
 6 -8.48686814011401  3.59998692859286 -1.98212715711571
 6 -7.80776966746675  2.37829383818382 -1.70422636913691
 6 -8.40707369826983  5.85937584698470 -1.13835334413441
 6 -9.57829219251925  3.75373577177718 -3.10617525032503
 6 -8.92236369006901  4.08139628582858 -4.41988839283928
 7 -6.22103052205220 -0.11346636433643 -1.20922601460146
 6 -7.26393592319232  0.03820775217522 -2.17312152285229
 6 -7.44269177637764 -1.29680138373837 -2.80392291489149
 6 -6.53996354515452 -2.21560113191319 -2.13380954665467
 6 -5.84698311371137 -1.40282384748475 -1.14072020242024
 6 -8.36073153095309 -1.77260738673867 -3.76914381058106
 6 -6.15915958305831 -3.53872945684568 -2.00346390149015
 8 -6.58794318981898 -4.53862156055606 -2.58148441354135
 6 -4.95364392649265 -3.50226827942794 -0.83938625842584
 6 -5.33551102850285 -4.55640108120812  0.19404307610761
 8 -5.88834460606061 -4.32704171227123  1.23546991039104
 8 -4.92891258945895 -5.80262145854585 -0.22415556015602
 6 -5.31073863806381 -6.88774062736274  0.71394322412241
 6  2.35155612881288 -5.14142526272627  0.58463241764176
 6  3.46973150815082 -4.15704586548655  0.99279717951795
 6  3.96300569076908 -3.16933980408041  0.17524115911591
 6  3.76720105900590 -3.22076701800180 -1.27997750225023
 6  5.06958338413841 -2.35403045064506  0.68051184998500
 6  6.40987585888589 -2.65891881708171 -0.00962949554956
 6  7.67470279387939 -1.74364371987199  0.53052874337434
 6  8.97630845214521 -1.99117395099510 -0.10198798129813
 6  9.52973935563556 -3.33270391079108  0.22138868116812
 6  9.86342692179218 -0.76093633103310  0.18642115761576
 6  11.29580688308831 -0.81678128502850 -0.39258802500250
 6  12.10583827242724  0.43365799329933  0.07191403900390
 6  13.45054751055105  0.48926379627963 -0.63438820202020
 6  14.04128242724272 -0.86048545114511 -0.36587073797380
 6  14.22261820142014  1.69716588818882 -0.04539379417942
 6  15.38580277067707  2.14504253245325 -1.10468546354635
 6  15.97799038343834  3.40251500430043 -0.51724233743374
 6  17.35045029412941  3.72924076567657 -1.30144407960796
 6  17.07706029572957  4.17170206190619 -2.71988421262126
 6  18.12416182228223  4.99699496479648 -0.60191965086509
 1 -2.59385510831083  1.03889816521652  3.61246171457146
 1 -6.45392337113711  5.60464584498450  0.66194518621862
 1 -8.63507391459146  1.09142944584458 -3.20857633643364
 1 -3.65024608940894 -3.14969028442844  1.79425748654865
 1 -1.72629975387539 -1.12982064366437  2.72267354345435
 1 -2.74555433453345 -2.50128328952895  4.47219076307631
 1 -3.52144293699370 -0.66785669006901  4.54255628542854
 1 -4.43727623932393 -2.11454053495349  3.70622457295730
 1 -2.29069438313831 -3.23364288158816 -0.26229685348535
 1 -1.45219305170517 -1.74443355965597  0.12514063566357
 1 -0.57795322882288 -3.04199549514951  2.22655687438744
 1 -1.49498422002200 -4.44126125732573  1.75560735873587
 1 -1.79373948774877  3.21572109650965  4.14302021172117
 1 -2.77703869396940  4.92326953295330  4.65857211491149
 1 -3.55065806080608  3.54445544304430  5.41371637763776
 1 -5.23356642054205  6.71817601200120  2.20738606000600
 1 -10.35687482098210  2.79583024012401 -3.22354560626063
 1 -10.26953775167517  4.59518336243624 -2.82723301400140
 1 -9.57440724052405  4.30815922992299 -5.34391959425943
 1 -8.35006451585159  5.01793153855386 -4.32037199219922
 1 -8.16942679167917  3.42151150995099 -4.72107203200320
 1 -8.09057664726473 -1.46035657855786 -4.92159315761576
 1 -8.11211219421942 -2.83974737983798 -4.16053869086909
 1 -9.49481956145615 -1.55033185658566 -3.62674958165817
 1 -3.94990234763476 -3.88648347494749 -1.35532881978198
 1  2.34852598559856 -6.31472941594159  1.16539249614961
 1  1.99736047944794 -5.10047702380238 -0.49717316691669
 1  3.80437255955596 -4.04022330413041  2.05696070367037
 1  2.89067405410541 -3.70938655975598 -1.59192173317332
 1  3.54337895119512 -2.11109466876688 -1.61317378787879
 1  4.73872604660466 -3.65897962716272 -1.81567049294929
 1  4.87103714461446 -1.40027645164516  0.50075195869587
 1  5.17961648894890 -2.60006163856386  1.70278515881588
 1  6.61435896259626 -3.73163635573557 -0.00013212921292
 1  6.43646380678068 -2.16121373037304 -1.14086468196820
 1  7.30001893319332 -0.69729305440544  0.17974522002200
 1  7.90968307120712 -1.89546612971297  1.60168455375538
 1  8.86418052735273 -1.84289256445645 -1.21154449254925
 1  8.87217173587359 -4.14828359975998 -0.20199399179918
 1  10.53472281308131 -3.43734793689369 -0.05989610311031
 1  9.61410047144714 -3.34881597309731  1.17733817651765
 1  9.31056020662066  0.04835056125613  0.16144150795079
 1  9.89870996849685 -0.67828436233623  1.29181872187219
 1  11.51387652895289 -1.73223325522552  0.08125375217522
 1  11.11929801650165 -0.92723562846285 -1.44227556115612
 1  11.38840987448745  1.42382681188119 -0.26553610881088
 1  12.24295911921192  0.49291048244825  1.22623090329033
 1  13.36263306400640  0.58039247154716 -1.77733997269727
 1  13.92352169046905 -1.24009222192219  0.73283896389639
 1  13.63197876887689 -1.73648266456646 -0.83901022252225
 1  15.38059904830483 -0.75302850105010 -0.46280317281728
 1  13.70737893209321  2.70585520462046  0.24296250855085
 1  14.70353705400540  1.54994528372837  1.01734894879488
 1  16.21631328712871  1.37875648834883 -1.25177166786679
 1  14.86998258165817  2.30931484428443 -2.07252863256326
 1  15.28427983258326  4.52454783278328 -0.81723372147215
 1  16.33329609970997  3.32711935333533  0.41815171557156
 1  18.03215689708971  2.91777326852685 -1.34622370197020
 1  16.62287300770077  5.36012254115412 -2.76226858665867
 1  18.22977890139014  3.97510702400240 -3.19083368846885
 1  16.24802500270027  3.47519858985899 -3.21654968956896
 1  18.48219426662666  4.86706792429243  0.45905756995700
 1  19.07210473277328  5.20044419661966 -1.34790170457046
 1  17.51047259815982  5.93563306640664 -0.46975103640364
 1 -4.92712801420142 -7.89241867496750  0.28181464376438
 1 -6.37711214151415 -6.91104819141914  0.92018552605261
 1 -4.71822999159916 -6.60770234583458  1.56897135373537
 8 -7.92506009760976  6.74775127592759 -0.33973175717572
 1 -9.24563286038604  6.24407005190519 -1.80424610741074

