%nproc=4
%Mem=2GB
# td=(NStates=1) iop(3/107=0140000000,3/108=0140000000) iop(3/107=0140000000,3/108=0140000000) CAM-B3LYP/6-31G(d,p) 

TD

0 1
12 -6.72770534263426  0.69519866396640  0.03882150165016
 6 -4.78625573207321 -2.11964038583858  0.47598787578758
 6 -4.13317513291329  2.69602123522352  0.85266814841484
 6 -8.91728443314332  3.28392241634163 -0.26759626132613
 6 -9.52679077667767 -1.69885291489149 -0.69049910861086
 7 -4.86714178607861  0.33159255695570  0.59300833293329
 6 -4.11534880048005 -0.83954366116612  0.61170172557256
 6 -2.56614003260326 -0.71012277147715  1.00135219751975
 6 -2.47270723652365  0.90627077587759  1.30571273377338
 6 -4.01601786468647  1.42480256545655  0.87688246294630
 6 -2.00111639733973  1.31711350725073  2.71525608840884
 6 -1.65215396379638 -1.28305086848685 -0.11683035673567
 6 -0.22963108140814 -1.15071677827783  0.32279135263526
 6  0.73530460966097 -1.21605884278428 -0.70189836363636
 8  0.80260032813281 -0.81886449894989 -1.90178116831683
 8  1.74082436903690 -2.10679097769777 -0.28685360786079
 7 -6.62663440564056  2.60774114411441  0.13668741664166
 6 -5.43851441234123  3.30779942314231  0.47510380658066
 6 -5.71270548574858  4.69268895369537  0.57150201880188
 6 -6.92803351675168  4.85532162266227  0.03127971127113
 6 -7.62190389428943  3.54227303570357 -0.14765993459346
 6 -4.64597951825183  5.70749818031803  0.83216088408841
 6 -7.88461002230223  6.09895681578158  0.05234475817582
 8 -7.33882779897990  7.25374699129913  0.04846270307031
 7 -8.81779533303330  0.69855071427143 -0.26474912401240
 6 -9.41055472787279  1.89492422772277 -0.42984403670367
 6 -10.84100073037304  1.54988485958596 -0.70833661486149
 6 -11.14298865636564  0.27336824122412 -0.85118597409741
 6 -9.89370103340334 -0.42482064526453 -0.54007608430843
 6 -11.78764553985398  2.68869506260626 -1.11983663446345
 6 -12.21488460896090 -0.51049461176118 -1.27402553625363
 6 -12.28659552165217 -0.84238640384038 -2.68146094079408
 7 -7.05639212211221 -1.43880644194419 -0.07186983148315
 6 -8.30930359195919 -2.17724772147215 -0.35025822382238
 6 -7.77026461156116 -3.67614493689369 -0.49271028112811
 6 -6.47458307950795 -3.71240040094009 -0.06739500010001
 6 -6.10606689538954 -2.26679549404941  0.20276646094609
 6 -8.67760628412841 -4.84063144094409 -0.66976979287929
 6 -5.17757396189619 -4.51424722282228  0.11262928862886
 8 -5.02331408010801 -5.67573811211121  0.18786929352935
 6 -4.11167489288929 -3.43327388658866  0.47299194639464
 6 -3.46079959085909 -3.76122229772977  1.75900561356136
 8 -4.05115035513551 -3.88937567236724  2.77748641844184
 8 -2.11777345224522 -3.87949425472547  1.62914285348535
 6 -1.35763428552855 -4.13479856995700  2.86430085528553
 6  2.83872576537654 -2.06052122902290 -1.27400864496450
 6  4.11483525092509 -1.20378737983798 -0.93944947724773
 6  5.32155291069107 -0.88811568296830 -1.47151335293529
 6  5.49008299209921 -1.42398553325333 -2.93280026222622
 6  6.28035185978598 -0.00018767166717 -0.87073363186319
 6  7.63480217421742 -0.74041982408241 -0.71628836613661
 6  8.65187774807481  0.19228486308631 -0.26537501800180
 6  9.93579666906691 -0.50083700400040  0.19281097539754
 6  9.76055357165717 -1.33495230993099  1.54177854665467
 6  11.09457178717872  0.68326318051805  0.47042188058806
 6  12.33596886738674 -0.02303099589959  0.53440175137514
 6  13.60197173977398  0.80877815251525  0.58933183158316
 6  15.00150648584859  0.18952223032303  0.51675633773377
 6  15.34969995809581 -0.37352963346335  1.79937986198620
 6  16.11452108050805  1.27705260726073  0.22448565386539
 6  17.47770724882488  0.62315754015402 -0.27429430333033
 6  18.24088363576358  1.92558975017502 -0.42642278907891
 6  19.73359556065607  1.50763925872587 -0.65892597629763
 6  19.89692949424943  0.72723815411541 -2.05937172837284
 6  20.70840800970097  2.67288870687069 -0.60436553245325
 1 -3.32879351765177  3.40548179917992  1.06938634033403
 1 -9.60442442494249  4.06398548364836  0.09098546464647
 1 -10.04644713631363 -2.32697309660966 -0.88820164606461
 1 -2.52591510831083 -1.27127474527453  1.97647769606961
 1 -1.67305664426443  1.54035451165116  0.50368682208221
 1 -1.04268565226523  1.15661397579758  3.10589130023002
 1 -1.87766594049405  2.24415299169917  2.65266138393839
 1 -2.85932826532653  0.94046193149315  3.42174804390439
 1 -2.00076909720972 -2.12776404940494 -0.53650143694369
 1 -1.95909107810781 -0.59112058495850 -1.13074286508651
 1  0.13042104040404 -0.43482491579158  1.00479634483448
 1 -0.14122784258426 -1.98499483328333  1.11250148224822
 1 -3.93829836023602  5.11128895679568  0.29205416311631
 1 -4.77895817641764  6.76580925682568  0.81832873897390
 1 -4.23641466966697  5.91071003200320  2.07163493579358
 1 -9.40430344444444  6.05319042824282 -0.12724910071007
 1 -12.69388894249425 -1.27696856435644 -0.68295272247225
 1 -13.23838005300530  0.06953335313531 -0.75674331073107
 1 -12.90773859695970 -1.61841395679568 -2.75987310441044
 1 -12.48894585838584  0.02381980348035 -3.52770493999400
 1 -11.30732755715572 -0.98886220322032 -2.84664127152715
 1 -8.99726891019102 -5.09136569216922 -1.75883811181118
 1 -8.14269948454846 -5.81874188678868  0.09101945004501
 1 -9.50539781978198 -4.56616857805781  0.00185479497950
 1 -3.23387296869687 -3.35952967786779 -0.25012331913191
 1  3.28347996339634 -3.18331560536054 -1.20324604170417
 1  2.61403569236924 -1.82937885288529 -2.31477171247125
 1  3.53082040974097 -0.77370011841184  0.06707030863086
 1  4.73191624862486 -0.66099957245725 -3.62847296229623
 1  6.70731430983098 -1.26283495889589 -3.47779900380038
 1  5.48145197259726 -2.72336495079508 -3.03104728852885
 1  6.24476489838984  1.22995833323332 -1.61092370957096
 1  5.80621573097310  0.40360590839084  0.25829156575658
 1  7.12686386528653 -1.43685188228823  0.07264898649865
 1  7.81750714911491 -1.37278606890689 -1.61649112501250
 1  9.06143827522752  0.97433802860286 -1.49768255355535
 1  8.40464896299630  0.81343653185319  0.75893160156016
 1  10.50039248634863 -0.86665410911091 -0.73590074767477
 1  8.65470771507151 -2.12739155485548  1.55331369216922
 1  10.64899096849685 -1.94339822102210  1.75209710111011
 1  9.16815002660266 -0.93626484888489  2.61249255435544
 1  11.11303494129413  1.54028678857886 -0.16141331293129
 1  10.96337608420842  1.11644051965197  1.61439531983198
 1  12.55803334553455 -0.87656009550955  1.27084076737674
 1  12.65110726472647  0.06538831823182 -0.68728172567257
 1  13.73536840684068  1.85979552455245 -0.12495139973997
 1  13.63237528232823  1.17738198949895  1.45793158255826
 1  14.62301372717272 -0.50024754075408 -0.13642183338334
 1  15.77301720162016  0.47770816631663  2.79753252625263
 1  14.45440271377138 -1.28868654055406  1.85407290539054
 1  16.29345637873787 -0.79795337843784  1.92421889958996
 1  15.48083921882188  1.86646664006401 -0.81787176187619
 1  16.24570860346035  2.00466000150015  1.06099442264226
 1  17.78042935803580 -0.05987281668167  0.56397658435844
 1  17.43993151735173 -0.12029386018602 -1.32765414281428
 1  17.99156416351635  2.71128767656766 -1.24695768406841
 1  18.02442243834384  2.44825873277328  0.59582625312531
 1  20.11272383358336  0.74417726392639 -0.16924357355736
 1  19.63010132813281  1.45337038663866 -2.66233835903590
 1  20.71657594759476  0.36542474067407 -2.20677481088109
 1  18.95511823882388  0.17204948654866 -2.17419549424943
 1  20.39786656525652  3.43410298939894  0.49347010061006
 1  21.93152089238924  1.88060464316432 -0.39892260726073
 1  20.72121877477748  3.25639312651265 -1.51348614491449
 1 -0.18482410751075 -4.73302605200520  2.69341768976898
 1 -2.14119380038004 -5.22995026872687  3.24138477507751
 1 -1.29662367566757 -3.12669114621462  3.66180033323332
 8 -11.67693606790679  3.81871667086709 -0.84855666936694
 1 -12.53545405690569  2.06082732283228 -1.38574917991799

