%nproc=4
%Mem=2GB
# td=(NStates=1) iop(3/107=0140000000,3/108=0140000000) iop(3/107=0140000000,3/108=0140000000) CAM-B3LYP/6-31G(d,p) 

TD

0 1
12 -6.70857342944294  0.69501864596460  0.22782040154015
 6 -4.46098320482048 -2.06440486228623  0.34444472147215
 6 -4.21963377877788  2.86133776687669  0.98538141974197
 6 -8.96292899759976  3.19527355145515 -0.44985448714871
 6 -9.28384648224823 -1.72711574117412 -0.61961201990199
 7 -4.80828590049005  0.40614001170117  0.63621265336534
 6 -4.00292755835584 -0.73622332913291  0.64861541694169
 6 -2.52137555615562 -0.55027678687869  1.02969503180318
 6 -2.52877284308431  0.97216736553655  1.32427458995900
 6 -3.94078034093409  1.60148023322332  0.99008378307831
 6 -2.29677596329633  1.26829862576258  2.81120568336834
 6 -1.42473122152215 -0.74811737513751 -0.02034070777078
 6  0.00058193989399 -0.97358906550655  0.55403447694769
 6  0.89317039623962 -0.97370460736074 -0.75350352415241
 8  0.92783285138514 -0.38359097159716 -1.71717270747075
 8  1.87318760536054 -1.95780607920792 -0.42083700620062
 7 -6.73782552475248  2.70207057705771  0.42315606350635
 6 -5.48932949384939  3.40442908610861  0.75394169036904
 6 -5.92854706990699  4.85696538133813  0.65629049764977
 6 -7.21214192759276  5.00405649614962  0.18723530683068
 6 -7.84217592149215  3.50072888128813  0.09666449784978
 6 -5.13377829812981  6.11428885938594  1.17818548654866
 6 -8.08402996429643  6.20599751985199  0.28180770447045
 8 -7.52395631183118  7.14168578517852  0.66764462126213
 7 -8.79032258575858  0.65032589178918 -0.38189083818382
 6 -9.51675534793479  1.82526726202620 -0.44496554885489
 6 -10.83979060936094  1.43559343044304 -0.89407518871887
 6 -10.97736209370937  0.11825272967297 -1.00076093159316
 6 -9.70526218951895 -0.40882904610461 -0.60880295699570
 6 -11.96640341564156  2.46402259535954 -1.07935258605861
 6 -12.17933105360536 -0.83404696699670 -1.58517665136514
 6 -12.23752061416142 -1.00034219941994 -3.10116291099110
 7 -6.85355183808381 -1.36042860416042 -0.17152979747975
 6 -8.06860952255225 -2.37262725942594 -0.42520571857186
 6 -7.59749733483348 -3.68665598799880 -0.50566157625763
 6 -6.08954457565757 -3.65178433933393 -0.31298955955596
 6 -5.82872916161616 -2.10249906440644 -0.04908872457246
 6 -8.32319084258426 -4.92094947274728 -0.71647446334633
 6 -5.01791799629963 -4.44418021612161 -0.01779375367537
 8 -4.68839058775878 -5.56089662796280 -0.22622211561156
 6 -3.83271699709971 -3.39977053625363  0.35735038223822
 6 -3.38526203710371 -3.66541271677168  1.85090480348035
 8 -4.01682692279228 -4.11611834663466  2.70065873567357
 8 -1.94092576747675 -3.33709001430143  2.03506344554455
 6 -1.42905142724272 -3.59672476257626  3.32081650685069
 6  2.95750764356436 -2.52336751365137 -1.27903914801480
 6  4.03720748814882 -1.52634963606361 -1.14158969126913
 6  5.14053480888089 -1.32254912631263 -1.80116631823182
 6  5.35562954675467 -2.08256139083908 -3.14864184638464
 6  6.29725354995500 -0.23606125902590 -1.37462402090209
 6  7.40370906490649 -0.93288907100710 -0.60820755805581
 6  8.58919147944794  0.08304393899390 -0.33921240174017
 6  9.79613270267027 -0.47526444674467  0.28890058435844
 6  9.90544806110611 -0.82759157385739  1.75766013481348
 6  11.03159548954896  0.62088694289429 -0.07352251385138
 6  12.47131240174017 -0.02001069386939  0.48358666986699
 6  13.44779632223222  1.02276955165517  0.49872277067707
 6  14.81551788698870  0.41255453355336  0.63476813891389
 6  14.99645463356336 -0.31658393889389  1.98715863986399
 6  15.95654528292829  1.36448135013501  0.35793899919992
 6  17.29788926702670  0.59340456485649 -0.05723259715972
 6  18.32425197259726  1.56074326552655 -0.55614576137614
 6  19.74395659675968  1.08431692649265 -0.84014409810981
 6  19.62461226252625  0.40005543584358 -2.22527831903190
 6  20.80175734463446  2.13769518751875 -0.57859295519552
 1 -3.21463210151015  3.48216946794679  1.02831223292329
 1 -9.70718470097010  3.94894397949795 -0.58976261016101
 1 -10.38278076967697 -2.28669906920692 -0.80212303820382
 1 -2.51002351915192 -1.06563418121812  2.08961901020102
 1 -1.93406274487449  1.74242471867187  0.74493094649465
 1 -1.25894727842784  1.13026134053405  3.22182289338934
 1 -2.79598777267727  2.31310988738874  3.13737985578558
 1 -2.93201553405340  0.57822570787079  3.58701457055706
 1 -1.86273529382938 -1.59248052105210 -0.55970375717572
 1 -1.17043221222122 -0.08748022092209 -0.96760655145515
 1  0.00276827512751 -0.28872030533053  1.24615048024803
 1 -0.09052277207721 -2.05256158995900  1.23873410551055
 1 -4.52280681108111  6.14286211411141  0.49526448414841
 1 -5.71252153275328  7.12980565646565  0.87700460656066
 1 -4.81110213841384  6.47649661066107  2.45017278957896
 1 -9.27960097419742  5.99305441464146  0.14085770997100
 1 -12.29227878147815 -1.63840470797080 -0.84952938013801
 1 -12.93991020602060 -0.25789939013901 -1.29246688308831
 1 -13.33033085618562 -1.55139725512551 -3.11576869396940
 1 -12.31844880868087 -0.00807338583858 -3.53388555805581
 1 -11.69037586198620 -1.47289060606061 -3.72086869426943
 1 -8.86475565886589 -4.90817737333733 -1.75412764076408
 1 -7.53278849344935 -5.77513752635264 -0.83644329622962
 1 -8.93369064906491 -5.19758171937194  0.27388199769977
 1 -3.08834841624162 -3.77791151605161 -0.43159146594659
 1  3.26267788318832 -3.49023629742974 -0.72641835893589
 1  2.67098138693869 -2.41053696869687 -2.60307054235424
 1  4.00631795949595 -1.12675542394239 -0.27485388378838
 1  4.78728178517852 -2.11957543004300 -4.24385450045005
 1  6.45480905930593 -1.87146582198220 -2.98863008690869
 1  5.47640146754676 -2.90020263456346 -2.78691287508751
 1  6.76191661356136  0.28547388478848 -2.54011662886289
 1  5.76463157255726  0.49859540734073 -0.63081734513451
 1  6.88865004390439 -1.05420361746175  0.49093081468147
 1  7.85933133153315 -1.83683247354735 -1.06457593349335
 1  8.82936506790679  0.50965155995600 -1.05597838313831
 1  7.98802730083008  0.86094128232823  0.63606931533153
 1  10.16226867396740 -1.22014945864586 -0.46802395999600
 1  8.93258550285029 -1.31318013371337  2.17458581938194
 1  10.44305037443744 -1.48155203640364  1.80090198159816
 1  9.96848005960596  0.22441121872187  2.59905121022102
 1  11.11050468826883  0.86806956685669 -1.37051422302230
 1  10.75666541314131  1.69478835443544  0.70349422972297
 1  12.18947648984899 -0.53151559105911  1.55144882818282
 1  12.46607876187619 -1.05993421402140 -0.28879187668767
 1  13.19251412141214  1.31189073407341 -0.63161206580658
 1  13.47008905370537  1.62444669596960  1.40153594299430
 1  14.65673709950995 -0.38700621662166 -0.18018620982098
 1  15.39916981688169  0.61250164566457  2.76081885488549
 1  14.21358863236324 -1.03418109000900  2.31918941704170
 1  15.91632866596660 -1.06156974007401  1.98499497719772
 1  16.06785792069207  1.91821181458146 -0.60625059975998
 1  16.10720475307531  2.13080261576158  1.16018434163416
 1  17.88844015911591  0.19114228482848  0.80690087678768
 1  16.67328485268527 -0.04907673847385 -0.73363474087409
 1  17.99553456055606  2.14324087188719 -1.22043503180318
 1  18.50584058015802  2.51270517741774  0.30654732523252
 1  19.98545110631063  0.11487433363336 -0.28565521472147
 1  19.24058237623762  1.35450049964996 -2.95337746294630
 1  20.43366765676567  0.06024422262226 -2.47933206660666
 1  19.00218294529453 -0.37985570397040 -2.82010008470847
 1  21.02525930453045  2.54633421252125  0.30813156675668
 1  21.78538627892789  1.64027060976098 -0.66595931093109
 1  21.03422007490749  2.74558204540454 -1.56366116241624
 1 -0.31020664576458 -3.66491924132413  3.49272762076208
 1 -1.75546522752275 -4.62170944464446  3.81021165776578
 1 -1.71459547284729 -3.04296277337734  4.27799195239524
 8 -11.95864423872387  3.62898769796980 -1.00241205490549
 1 -12.98118863036304  2.03829506960696 -1.64603520852085

