%nproc=4
%Mem=2GB
# td=(NStates=1) iop(3/107=0140000000,3/108=0140000000) iop(3/107=0140000000,3/108=0140000000) CAM-B3LYP/6-31G(d,p) 

TD

0 1
12 -6.88265083718372  0.53587273137314  0.09228684818482
 6 -4.52169927642764 -2.02413083488349  0.59199947694769
 6 -4.16057787318732  2.79637127022702  0.94015689728973
 6 -8.97645034973497  3.20313433753375 -0.28809831153115
 6 -9.36520461806181 -1.74160719031903 -0.79225928462846
 7 -4.61393646554655  0.39077847554755  0.60343937603760
 6 -3.95294255985599 -0.75057476427643  0.75735629102910
 6 -2.53285670427043 -0.52543430263026  1.18084014631463
 6 -2.65624559035904  0.90966111491149  1.67878004050405
 6 -3.82348861176118  1.43562364756476  0.95679045374537
 6 -2.83078936463646  1.12961475737574  3.02459702250225
 6 -1.51321006940694 -0.78051061446145 -0.03765243894389
 6 -0.18348646694670 -1.15179688628863  0.54291336483648
 6  0.94059513871387 -1.17406464336434 -0.52180035383538
 8  0.93978404650465 -0.66863947644764 -1.61375236543654
 8  1.94947523412341 -2.04399469806981 -0.05334025652565
 7 -6.59734147634764  2.51521189118912  0.23820756865687
 6 -5.52701326222622  3.21340998419842  0.76894319051905
 6 -5.91237545274527  4.59984966976698  0.84353922252225
 6 -7.25070578397840  4.81952804330433  0.48521510481048
 6 -7.67988969286929  3.51380018841884 -0.01129629822982
 6 -4.86726164646465  5.78210564106411  1.13739140714071
 6 -8.20953251455146  6.03630055015501  0.36986651035103
 8 -7.63515743194319  7.10119173577358  0.39486734353435
 7 -8.72210576407641  0.63478433763376 -0.45057770687069
 6 -9.49315298769877  1.91329606490649 -0.55051610391039
 6 -10.85192182248225  1.61817168826883 -0.98896467766777
 6 -10.97987234473447  0.17822872727273 -1.18352920842084
 6 -9.72688435173517 -0.32960112331233 -0.82712478917892
 6 -11.92072884818482  2.44452064516452 -1.37685233603360
 6 -12.07084020452045 -0.47248081038104 -1.64286241994199
 6 -12.18980584268427 -0.82333449864987 -3.20611340604060
 7 -6.95878236113611 -1.34641720302030 -0.17255990049005
 6 -8.07819048064806 -2.24258425512551 -0.55189838783878
 6 -7.64133171827183 -3.57576489888989 -0.48252926302630
 6 -6.32847846904690 -3.54368352925293 -0.14779303990399
 6 -5.86474276297630 -2.15843465796580 -0.10234405010501
 6 -8.49636816031603 -4.78774615241524 -0.91273408930893
 6 -5.12102830733073 -4.42202800090009  0.12753077877788
 8 -4.80759250795079 -5.57238777707771 -0.07405689908991
 6 -4.09414313971397 -3.44501506070607  0.55272992019202
 6 -3.53392690359036 -3.73161933743374  1.81804151715172
 8 -4.08419365946595 -4.12477921272127  2.87899656945695
 8 -2.07238891379138 -3.63453975927593  1.79320926012601
 6 -1.58019654175418 -3.90966605670567  3.04782920812081
 6  3.03426531933193 -2.22680785768577 -0.75145638973897
 6  4.14328809620962 -1.15915291639164 -0.62045757805781
 6  5.18626938233823 -0.95791266266627 -1.38779498109811
 6  5.31406539033903 -1.81566470117012 -2.58119510171017
 6  6.19171299589959  0.08475082218222 -1.04332089058906
 6  7.47054574857486 -0.57245302740274 -0.70362710001000
 6  8.62542510281028  0.33794942954295 -0.13845232573257
 6  9.87456054545455 -0.28775569586959  0.08176987128713
 6  9.82259977627763 -1.15007382208221  1.41104547334733
 6  11.09026135613561  0.68764361856186  0.20467530593059
 6  12.45452072257226  0.00004131133113  0.20080839203920
 6  13.53867541014101  0.98752602730273  0.34148704710471
 6  14.92297863306331  0.22147542564256  0.31804646674667
 6  15.14376936503650 -0.64860714121412  1.60058998299830
 6  16.02986261466147  1.29201410341034  0.13531673697370
 6  17.45760523862386  0.67820304470447 -0.39051592549255
 6  18.51917146454646  1.67124431563156 -0.58907905470547
 6  19.77129933103310  1.17990648544854 -0.96661674537454
 6  19.80385018631863  0.78948437873787 -2.59128491969197
 6  20.97875504440444  2.11611302930293 -0.38706380228023
 1 -3.02041267956796  3.50186143714371  1.23675307700770
 1 -9.89770375287529  3.81675076017602 -0.11597523142314
 1 -10.21297378897890 -2.15937633693369 -1.16683950985099
 1 -2.27667018381838 -1.31397901570157  1.76610665896590
 1 -1.97527686628663  1.53753422962296  1.32824927832783
 1 -2.09995137883788  0.58158647304731  3.49537024812481
 1 -2.78131630553055  2.16875545194519  3.25715183298330
 1 -3.76893922642264  0.81414930023002  3.50060592969297
 1 -1.81549056935694 -1.95130640364036 -0.75600338713871
 1 -1.22156732573257  0.20026855395540 -0.44533432423242
 1  0.05594359265927 -0.48102953625363  1.36738260346035
 1 -0.14593831363136 -2.13959029282928  0.96612684478448
 1 -4.18682321272127  6.01906973487349  0.34446940464046
 1 -5.09932021262126  6.81843451935193  1.12229913601360
 1 -4.22326335453545  5.80382934393439  2.03485125742574
 1 -8.87531054515452  6.00496560576058 -0.11236761256126
 1 -12.25168472207221 -1.42387325482548 -1.10977540474047
 1 -13.00429664466447 -0.09545314551455 -1.12864050045004
 1 -12.89020684378438 -1.49922203760376 -3.50032714981498
 1 -12.29067603140314 -0.01235381388139 -3.96001817131713
 1 -11.40765759015902 -1.53341665866587 -3.46225283268327
 1 -8.77106628992899 -4.64358091369137 -2.09239146714671
 1 -8.16217143174318 -5.69227924052405 -0.91356100800080
 1 -9.42509978997900 -5.09027098829883 -0.15179056955696
 1 -3.32826240764076 -3.43789751465146 -0.42147045384538
 1  3.32785440084008 -3.24905217901790 -0.49765548264826
 1  2.66845113391339 -2.44108002300230 -1.81642187748775
 1  4.04567189488949 -0.86906965536554  0.39247284888489
 1  4.72315537253725 -1.01595506800680 -3.41588170317032
 1  6.81048462686269 -1.79527820322032 -3.02715393929393
 1  4.92124595199520 -2.86865948024802 -2.31693587738774
 1  5.93767418931893  0.62599793719372 -1.93050566776678
 1  5.72361747114712  0.94571011881188 -0.08014227762776
 1  7.51980315921592 -1.33574177127713 -0.15235351375137
 1  7.94010940934093 -1.31521031133113 -1.39408888478848
 1  8.89625175657566  1.48387898269827 -0.70471325662566
 1  8.12915141324132  0.85170035823582  0.79313502190219
 1  10.18231067816782 -1.13200064376438 -0.64091124872487
 1  8.90987323162316 -2.01131994769477  1.35128348914891
 1  10.98825489488949 -1.78487236843684  1.54201609300930
 1  9.55424863646365 -0.52290351275127  2.27875918101810
 1  11.11898553635364  1.10216297619762 -0.59025619721972
 1  11.16981672827283  1.21954082968297  1.07863174347435
 1  12.53005054725472 -0.70179261876188  0.77426110941094
 1  12.49542169616962 -0.40995921652165 -0.76545954345435
 1  13.46493136313632  1.90551009600960 -0.59973887848785
 1  13.41831387618762  1.41521577287729  1.44905069446945
 1  15.04120554635464 -0.35255277127713 -0.76085427662766
 1  15.03489338923892  0.09924031953195  2.75102787578758
 1  14.55873314681468 -1.36198387028703  2.06626412451245
 1  16.15164219731973 -1.13423700680068  1.95357183488349
 1  15.89456059095910  1.82282227562756 -0.57968794349435
 1  15.89032306490649  1.94480401590159  1.12778110131013
 1  17.89215053015301 -0.11729855925593  0.37916810351035
 1  17.09962748694869  0.11833000220022 -1.43529490689069
 1  18.06552155925593  2.42221876967697 -1.29273226152615
 1  18.64349434553456  2.33843775067507  0.64263093359336
 1  19.97815037623763  0.25901874807481 -0.07157380658066
 1  20.01515983398340  1.92890794039404 -3.07825995119512
 1  20.62623691369137  0.07054525272527 -2.37308144154415
 1  18.93682640964096  0.07471975357536 -2.76003407810781
 1  20.99720649924992  2.42281186028603  0.59913066666667
 1  22.07082482278228  1.89643622632263 -0.99420213521352
 1  20.77110376327633  3.29482696989699 -0.75581037733773
 1 -0.44469009410941 -4.06557930733073  3.08201654965496
 1 -2.01922160316032 -4.91165843954395  3.30697133373337
 1 -1.58176218951895 -2.82819129622962  3.61082523572357
 8 -11.88435680998100  3.75207000620062 -1.16974878857886
 1 -12.86416692819282  2.10187142724272 -1.97863846884688

