%nproc=4
%Mem=4GB
# td=(NStates=1) iop(3/107=0140000000,3/108=0140000000) iop(3/107=0140000000,3/108=0140000000) CAM-B3LYP/6-31G(d,p) 

TD

0 1
12 -5.71031253785378  1.22495737003700  0.31316992219222
 6 -5.04341472867287 -2.13119158245825 -0.32659952675268
 6 -3.35514430353035  1.23496378117812  2.79489486278628
 6 -6.23813260896090  4.52376564076408  0.66947715651565
 6 -7.97704347144714  1.18176902760276 -2.47662533603360
 7 -4.40782503580358 -0.31708990079008  1.13631497029703
 6 -4.27963149064907 -1.57777147874787  0.66060841044104
 6 -3.22738586308631 -2.31704500730073  1.45609997369737
 6 -3.00144331533153 -1.22671556245625  2.71706826292629
 6 -3.47448487588759 -0.01080370807081  2.16953153835384
 6 -3.53239627902790 -1.70766420782078  3.98909160856086
 6 -1.94244943814381 -2.67311472077208  0.72944825032503
 6 -1.03343498699870 -3.62973055365537  1.51305489348935
 6  0.27350245074507 -3.91835567626763  0.72616081078108
 8  0.40920098439844 -3.49233654725473 -0.39476571077108
 8  1.11490833653365 -4.76057567486749  1.38739334663466
 7 -4.86640745704570  2.64781415831583  1.47102733443344
 6 -4.01805389518952  2.48787620932093  2.55513611691169
 6 -3.73013251695170  3.68073657585759  3.22412296849685
 6 -4.58632918561856  4.53868539683968  2.61398066936694
 6 -5.26198230243024  3.91283937913791  1.54254034633463
 6 -2.66272163526353  3.91148852465247  4.24639882928293
 6 -4.59764629522952  5.98860628112811  2.94942444724472
 8 -3.86516656465647  6.50782867086709  3.76295019491949
 7 -6.93424722462246  2.56789668546855 -0.70600225652565
 6 -6.88704141894189  3.93076269346935 -0.42476416511651
 6 -7.87535272167217  4.60366709150915 -1.23048715821582
 6 -8.33865331863186  3.65295222512251 -2.22313125752575
 6 -7.83887277777778  2.39978598739874 -1.81521746824682
 6 -8.30122311321132  5.95237514691469 -1.17556706550655
 6 -9.34505886918692  3.85074547274727 -3.25664029682968
 6 -8.68558001170117  4.05501364756476 -4.57016342034203
 7 -6.27950636963696 -0.05231024872487 -1.17533262526253
 6 -7.24604413401340  0.08032196359636 -2.18477268796880
 6 -7.56028353555356 -1.29228093169317 -2.66481900450045
 6 -6.68370791959196 -2.12582215401540 -2.04013017871787
 6 -5.98071648704870 -1.37203076817682 -1.13296942734273
 6 -8.52727818561856 -1.67765789178918 -3.77960485668567
 6 -6.23998766586659 -3.47897348124812 -1.94675823092309
 8 -6.53482787828783 -4.45716341474147 -2.51440770587059
 6 -4.96886544864486 -3.44229228182818 -0.89615193499350
 6 -5.18183566096610 -4.65929137023702  0.07093076487649
 8 -5.64061983358336 -4.57509651775178  1.19529589298930
 8 -4.80769046724672 -5.88327952435244 -0.49003214781478
 6 -5.08840640484048 -6.96495834913491  0.34094592439244
 6  2.29915088828883 -5.00124124432443  0.77583153755376
 6  3.38514304930493 -4.03338349924992  1.11556945674567
 6  3.97868725892589 -3.27044991509151  0.24734836983698
 6  3.60283462236224 -3.16264120542054 -1.27831733623362
 6  5.07741416721672 -2.44265931353135  0.56180997979798
 6  6.46634150545055 -2.65228815401540 -0.02814134673467
 6  7.50801612521252 -1.85211456695670  0.52267795829583
 6  8.90691151245125 -1.98800363396340 -0.27433521602160
 6  9.53494987668767 -3.41088172857286 -0.11229468716872
 6  9.91915249434943 -0.99429966736674  0.38126064156416
 6  11.19094639703970 -0.75576518341834 -0.50778954515452
 6  12.13761144974497  0.30442507000700  0.16433328092809
 6  13.48985144094409  0.42398726862686 -0.57073183638364
 6  14.53120141914191 -0.67000640324032 -0.31987613851385
 6  14.10813675327533  1.68522469406941 -0.30083933873387
 6  15.42022621302130  2.03144117231723 -0.94518951395140
 6  15.99839242364236  3.48757351015102 -0.48653926712671
 6  17.28756400550055  3.87155499709971 -1.28844277947795
 6  17.13121571127112  3.99241413311331 -2.76322854705471
 6  17.71246065216522  5.26411167646765 -0.73635309420942
 1 -2.72032775557556  1.13927820322032  3.78061853025303
 1 -6.46873485228523  5.59722510291029  0.79133812551255
 1 -8.61588199539954  1.38338864176418 -3.20355583438344
 1 -3.64034509930993 -3.15569088448845  1.94247230803080
 1 -1.81814893879388 -1.04114177577758  2.63816509260926
 1 -2.95393517261726 -2.63070623182318  4.11977552155215
 1 -3.36683747644765 -0.84937484188419  4.70859288908891
 1 -4.60866337803780 -2.16974605550555  3.79353330383038
 1 -2.13905921962196 -3.30520003730373 -0.17426805060506
 1 -1.57231506390639 -1.81773088938894  0.38951707330733
 1 -0.75353078657866 -3.34530582618262  2.47900211891189
 1 -1.56333105470547 -4.66108323952395  1.34498629662966
 1 -1.57849796359636  3.34705422982298  3.88816472617262
 1 -2.59214020412041  5.13716092209221  4.40837709540954
 1 -3.03290628562856  3.35694669216922  5.16512151815181
 1 -5.27015007890789  6.65441963636364  2.31373669506951
 1 -10.02669180268027  2.92553321042104 -3.21136438813881
 1 -10.16304710261026  4.71294513861386 -3.10899118981898
 1 -9.30561036083608  3.93267168116812 -5.51111631393139
 1 -8.11711122052205  4.99850959635964 -4.36774672967297
 1 -8.04445429442944  3.14618397719772 -4.72101202600260
 1 -8.49090668026803 -1.12840338323832 -4.79024002230223
 1 -8.36981796479648 -2.88688209330933 -4.13032566956696
 1 -9.52697277677768 -1.52609943334333 -3.53459036573657
 1 -4.20753811121112 -3.71897672427243 -1.39609289618962
 1  2.37130826382638 -6.05612355535554  1.16505246214621
 1  2.15438618201820 -5.07081405750575 -0.35519896949695
 1  3.58069019131913 -4.13343262506251  2.15037004460446
 1  2.59199418611861 -3.50719634073407 -1.30985352635264
 1  3.61102571587159 -2.23887744704470 -1.74596706720672
 1  4.35285745974597 -3.63031676087609 -1.70862978887889
 1  4.87500754165417 -1.23017944194419  0.24831671517152
 1  5.27320584788479 -2.43487511991199  1.73826870717072
 1  6.58592611931193 -3.76484967706771  0.26792467646765
 1  6.43675383578358 -2.58735634463446 -1.17347794329433
 1  7.35165409670967 -0.74452777787779  0.55994323982398
 1  7.74998710161016 -1.98051463456346  1.77237162246225
 1  8.48689279857986 -1.60699897509751 -1.18585192329233
 1  8.94152867156716 -4.22022079347935 -0.66883067546755
 1  10.48434777557756 -3.37030123222322 -0.60295040854085
 1  9.66842590399040 -3.77826891839184  0.98062850555055
 1  9.34599374997500  0.01717744394439  0.58494385818582
 1  10.24172426992699 -1.59065559945995  1.45180472047205
 1  11.85808094939494 -1.72469250115012 -0.47974234743474
 1  11.07920400710071 -0.37707061196120 -1.62168350195019
 1  11.49676070957096  1.20570499969997  0.14536498129813
 1  12.25211003430343 -0.08541735033503  1.24230251045105
 1  13.28843564426443  0.47093152545255 -1.62042428112811
 1  14.92957229552955 -0.75161337403740  0.69500518051805
 1  14.15052062306230 -1.76688570487049 -0.54463078457846
 1  15.52354334273427 -0.42284548274827 -0.71595848834884
 1  13.36224441864186  2.53128774787479 -0.58259004670467
 1  14.24327102740274  1.82909319851985  0.71853906780678
 1  16.24165582138214  1.34018263096310 -0.71418790949095
 1  15.45934151755176  2.09928384118412 -2.12741412111211
 1  15.23722512711271  4.16117149514951 -0.84290628872887
 1  16.35226799689969  3.42421906330633  0.59585948634863
 1  18.21072475387539  3.24271576277628 -0.96835591519152
 1  16.35358607900790  4.65746227512751 -2.92612497229723
 1  18.07553347684768  4.31875138843884 -3.24640924602460
 1  16.84618481868187  3.00275134513451 -3.11802983758376
 1  17.69384543174317  5.26794801230123  0.37063872807281
 1  18.73579110141014  5.43501765396540 -0.99917683208321
 1  17.12333388428843  6.17405690879088 -1.10962502380238
 1 -5.04939024042404 -7.83941337443744 -0.53623716141614
 1 -6.16091052135214 -6.69355644224422  0.98091159865987
 1 -4.22057022562256 -7.05406698229823  1.11198565516552
 8 -7.85952354395440  6.72592909370937 -0.33413119711971
 1 -9.10120841794179  6.32824846974697 -1.94324000680068

