%nproc=4
%Mem=2GB
# td=(NStates=1) iop(3/107=0140000000,3/108=0140000000) iop(3/107=0140000000,3/108=0140000000) CAM-B3LYP/6-31G(d,p) 

TD

0 1
12 -6.74194676677668  0.62782192629263  0.03849146864686
 6 -4.51405851235123 -2.06383480528053  0.46547682468247
 6 -4.12759457485749  2.79552118521852  0.72508539013901
 6 -8.99950265496550  3.09924394849485 -0.09144864656466
 6 -9.45339343694370 -1.86307933753375 -0.60163022172217
 7 -4.72967803970397  0.44178357605761  0.51747077917792
 6 -3.95327259285929 -0.74899460626063  0.61241179657966
 6 -2.45754917351735 -0.51754351355136  0.95404746704670
 6 -2.56096606240624  1.02789293809381  1.22374453695370
 6 -3.95107137003700  1.55346543174317  0.80767554225423
 6 -2.32956924262426  1.33717551345134  2.52028659145915
 6 -1.52170091849185 -0.87223978737874 -0.13813248694869
 6 -0.06422454075408 -1.14993670027003  0.49863893739374
 6  0.90361144034403 -1.47798503540354 -0.78157633143314
 8  0.63637370547055 -1.31090370287029 -2.03475446564656
 8  2.03876416301630 -2.19532983158316 -0.21888681118112
 7 -6.51599334153415  2.54600497049705  0.30250399829983
 6 -5.36970753165317  3.30774941814181  0.57330362656266
 6 -5.75631984718472  4.86475616041604  0.67919278787879
 6 -7.15810652405241  4.96381247174718  0.40571715501550
 6 -7.66746845074508  3.45729453785379  0.23135796719672
 6 -4.71084600490049  5.98684611511151  0.98155582358236
 6 -7.85089665096510  6.18477539763976  0.44788431213121
 8 -7.37677159335934  7.38777039363936  0.43581143794379
 7 -8.74323787728773  0.70410126932693 -0.24801745084508
 6 -9.54862853525353  1.89106384168417 -0.33912496479648
 6 -10.93141977227723  1.59894976607661 -0.74823060426043
 6 -11.00905526302630  0.12323322772277 -0.88752960846085
 6 -9.73062472577258 -0.38377654085409 -0.54260633733373
 6 -11.95396217151715  2.52959915301530 -1.06090074087409
 6 -12.25883900440044 -0.70781434373437 -1.22532066576658
 6 -12.48795565766577 -0.71707387258726 -2.62453524822482
 7 -6.96006248914891 -1.28858141944194 -0.03856650115012
 6 -8.23845650725072 -2.27720771747175 -0.34453765176518
 6 -7.71720930603060 -3.64178150055005 -0.42379338943894
 6 -6.32608823002300 -3.53590275117512 -0.13613187378738
 6 -5.91548783748375 -2.27876669116912  0.18981516581658
 6 -8.70916944044404 -4.69808718651865 -0.52538535443544
 6 -5.04894109860986 -4.40454625272527  0.07355538123812
 8 -4.87588933763376 -5.57901844014402 -0.14341383478348
 6 -3.87047077247725 -3.49114967416742  0.43560820802080
 6 -3.30253376427643 -3.74309048454845  1.75548526152615
 8 -3.89899513961396 -3.83113984878488  2.81239990979098
 8 -2.00434210911091 -3.72206851215122  1.64548448764877
 6 -1.13006152825283 -4.16600169026903  2.87341176637664
 6  3.06553844664466 -2.47105228212821 -1.18040928502850
 6  4.08988275567557 -1.30988798989899 -0.95073060536054
 6  5.12918367376738 -1.08846571797180 -1.88451465306531
 6  5.23447743154315 -1.97133026772677 -3.15902288448845
 6  6.29254307890789 -0.10923857675768 -1.60816737523752
 6  7.53640233423342 -0.93298908100810 -1.12017875517552
 6  8.51081364166417  0.17681331593159 -0.80301878237824
 6  9.89374246364637 -0.49630655095510 -0.20434874057406
 6  9.62049956625662 -1.06995581028103  1.31240560936094
 6  10.93435576557656  0.48611346554655 -0.08271343294329
 6  12.24969023952395  0.17130843804380  0.30447875907591
 6  13.31448299089909  1.21186846154615  0.46045894429443
 6  14.74618095329533  0.57375065316532  0.65566022812281
 6  14.89819480758076 -0.00144242474247  2.11349127312731
 6  15.92900252865287  1.69104400640064  0.51593479877988
 6  17.16382586068607  0.94700992539254  0.16966009210921
 6  18.31360090749075  1.86310350155015 -0.16677682448245
 6  19.73327552865286  1.07420591539154 -0.34115419911991
 6  19.83684348564856  0.23552898319832 -1.61665745694570
 6  21.02417958685869  2.14591600960096 -0.46223131903190
 1 -3.10484112241224  3.29976122712271  0.96561596329633
 1 -10.02697668016802  3.69659874497450  0.10056642274228
 1 -10.44370686228623 -2.44609500880088 -0.71844467036704
 1 -2.40755327212721 -1.01651926972697  1.94711475977598
 1 -1.67003634223422  1.46645712191219  0.49665611901190
 1 -1.40307169086909  0.88671698609861  2.80157086818682
 1 -2.74334250815081  2.37318589498950  2.63337945574557
 1 -2.89241157365737  0.82625051035104  3.27763363246325
 1 -1.45639465976598 -1.83865513851385 -0.92624041084108
 1 -1.45470063906391 -0.00463193609361 -1.19143893469347
 1  0.09832783108311  0.09998856555656  0.75860172537254
 1 -0.26334005380538 -1.82463879767977  1.18407863996400
 1 -3.88847337773777  6.79557738563856 -0.10820586288629
 1 -5.25223550415042  6.95574825072507  0.92940984708471
 1 -4.22762379057906  5.75167412841284  2.30315808810881
 1 -9.07788080218022  5.64051916111611  0.39054267846785
 1 -12.14024357795780 -1.86785765326533 -0.74141856905691
 1 -12.91703791879188 -0.18827242744275 -0.59940757715772
 1 -13.23292111521152 -1.33671578697870 -3.14193131023102
 1 -12.75951291509151  0.23624104560456 -3.47310948044804
 1 -11.71310813521352 -1.33570688768877 -3.24019062646265
 1 -8.96353553685369 -4.68001455705570 -1.71763399139914
 1 -8.10334554915491 -5.59478949154916 -0.51687133903390
 1 -9.66743402340234 -4.82912487368737  0.18422303180318
 1 -2.89851943334333 -3.48482220712071 -0.30312861966197
 1  3.62720433583358 -3.30562783658366 -0.88822453955396
 1  2.58921321012101 -2.76069198419842 -2.19760999629963
 1  4.29426675437544 -0.62745549394940 -0.04712111051105
 1  4.25336839383938 -1.93169664216422 -3.93531364636464
 1  5.89153273167317 -1.37179585498550 -3.84014523842384
 1  5.34217804520452 -3.01702431673167 -3.12878706250625
 1  7.00992141404140  0.56276161356136 -2.56584920212021
 1  5.92325743514351  0.60581612941294 -0.80677494089409
 1  7.12425360426043 -1.45036323342334 -0.05616389478948
 1  7.74480987938794 -1.57185597589759 -1.97924740064006
 1  8.77126925832583  0.86054664946495 -1.83347613291329
 1  8.31096959505951  0.82485767396740  0.00244595299530
 1  10.13809625672567 -1.12873031673167 -0.73812096969697
 1  8.80187243154315 -1.64358317401740  1.30449881068107
 1  10.69519558895890 -1.92932681388139  1.87995988738874
 1  9.54047725932593  0.03684246184619  2.18977028212821
 1  10.93734737253726  0.94423718361836 -1.17663483508351
 1  10.65719546614661  1.47821669726973  0.48437231753175
 1  12.17609515171517 -0.08310074957496  1.41595527882788
 1  12.62332448644865 -0.43838205880588 -0.35814881238124
 1  13.17122199219922  1.79420896589659 -0.07973687828783
 1  13.60935298009801  1.74257850915092  1.53881967136714
 1  14.68376980278028 -0.09801731773177 -0.07721591279128
 1  14.96205610551055  0.65813620912091  2.94740751375138
 1  14.22486976047605 -0.81199887178718  1.87188468656866
 1  15.95510254335434 -0.42133571667167  1.92811928962896
 1  15.55364649954995  2.30321031443144 -0.29165914061406
 1  16.13855788838884  2.30210974647465  1.15385370857086
 1  17.66324763986399  0.53321649224922  0.79676986368637
 1  16.71450897509751  0.19234740394039 -0.54660603800380
 1  18.05240024712471  2.24098064586459 -1.07963095139514
 1  18.16900689678968  2.75540944784478  0.66569323982398
 1  20.01143370457046  0.34372721892189  0.65979933073307
 1  19.80241855985598  0.57278232783278 -2.59334145934593
 1  20.43001729172917 -0.17020882268227 -1.92078621202120
 1  19.28222094909491 -0.61370908930893 -1.61649972467247
 1  21.13447022562256  2.89516909600960  0.33794454805480
 1  22.08875661596160  1.62116869956996 -0.46922963796380
 1  20.83958061096109  2.90873836103610 -1.08666346264627
 1  0.14583895879588 -4.40492324172417  2.69770811881188
 1 -1.55130481148115 -5.13178045174517  2.75999663626363
 1 -1.46717073037304 -3.07344582168217  3.85970012321232
 8 -11.83201157545755  3.79845464466447 -0.81188300200020
 1 -12.77188770027003  1.84534577467747 -1.49915052005201

