%nproc=4
%Mem=4GB
# td=(NStates=1) iop(3/107=0140000000,3/108=0140000000) iop(3/107=0140000000,3/108=0140000000) CAM-B3LYP/6-31G(d,p) 

TD

0 1
12 -5.65541704830483  1.20516539083908  0.24162276747675
 6 -5.09376976417642 -2.12954141744174 -0.37063393019302
 6 -3.40904969406941  1.16544682948295  2.82673804710471
 6 -6.28456725242524  4.53333659785979  0.69933014181418
 6 -7.99953572067207  1.15645649634963 -2.27230490399040
 7 -4.37805205850585 -0.25118331013101  0.97402874167417
 6 -4.24018754625463 -1.57639134073407  0.62820517011701
 6 -3.28343146764676 -2.33986728952895  1.50197456115612
 6 -2.89679285028503 -1.33882677357736  2.58212476857686
 6 -3.52757018441844 -0.01793442114211  2.13274785998600
 6 -3.50941398079808 -1.83165660706071  3.98807150655065
 6 -2.01250644384438 -2.60071748104810  0.59672497799780
 6 -1.02299394289429 -3.49071665226523  1.28209179717972
 6  0.19751485198520 -3.81549539023902  0.43411160586059
 8  0.48360842514251 -3.48968628222822 -0.67768400260026
 8  1.06420326602660 -4.59817943524352  1.20189479677968
 7 -4.81361217751775  2.62099147604760  1.48285851755176
 6 -3.89516160596060  2.46353377507751  2.40885148844884
 6 -3.67736724042404  3.67839634183418  3.09684024022402
 6 -4.47673822652265  4.66046757505751  2.52778204950495
 6 -5.23560966516652  3.96294438963896  1.48123421572157
 6 -2.76386174927493  3.77503487928793  4.29352354175418
 6 -4.49223575417542  6.00201762226223  2.84996450125013
 8 -3.80499054705471  6.61071895989599  3.67634153405341
 7 -6.85680948084809  2.66035593139314 -0.68111976827683
 6 -6.97740045484549  3.91188080528053 -0.33085477417742
 6 -7.83189837623762  4.64048077287729 -1.21205531503150
 6 -8.51796124942494  3.64096102600260 -2.11380032443244
 6 -7.79346823732373  2.46813282208221 -1.75734168066807
 6 -8.18373136403640  6.03652356175618 -1.18629813861386
 6 -9.48825318861886  3.76591698989899 -3.21029566236624
 6 -8.83442489618962  4.05509365556556 -4.58155455945595
 7 -6.50107852685268 -0.20605562326233 -1.00898599059906
 6 -7.48843837343734 -0.05027109570957 -1.98729293999400
 6 -7.67787529472947 -1.38444014761476 -2.64634715731573
 6 -6.83243279207921 -2.20130970277028 -1.98908507420742
 6 -6.00880929632963 -1.43741730683068 -1.00805693609361
 6 -8.63470892869287 -1.68659878587859 -3.72015891209121
 6 -6.35281894899490 -3.57774335823582 -1.92860641574157
 8 -6.62323671917192 -4.60048774717472 -2.52239850495050
 6 -5.12479104120412 -3.59539759235924 -0.88226054585459
 6 -5.18978645604560 -4.67431287238724  0.20015368716872
 8 -5.46108187978798 -4.40372938103810  1.31892825622562
 8 -4.95481517971797 -5.89364056045604 -0.44060720532053
 6 -5.23711127532753 -6.99061091439144  0.55641747154715
 6  2.30272124532453 -5.05276639683968  0.61469542394239
 6  3.39354388938894 -4.13558371927193  0.93619151895190
 6  4.06832622282228 -3.20819368946895  0.09364299929993
 6  3.72636697559756 -3.10712565386539 -1.40871037553755
 6  5.13154958075808 -2.41789683728373  0.46726052485249
 6  6.54469934123412 -2.80768369356936 -0.07310584318432
 6  7.57298262186219 -1.79561891739174  0.47228291879188
 6  9.02330315161516 -2.02616745034503 -0.08597638013801
 6  9.59821620332033 -3.37698833923392  0.26573311561156
 6  10.00168074717472 -0.90329056645665  0.50636315181518
 6  11.39315661806181 -0.87739734663466 -0.17118588478848
 6  12.29499718831883  0.20726535403540  0.25404225182518
 6  13.61889434523452  0.38579344924492 -0.47369213241324
 6  14.44319261826183 -0.82570197279728 -0.41097524842484
 6  14.20234617421742  1.85394156575658 -0.20026928172817
 6  15.43133732413241  2.18416644484448 -1.04024901990199
 6  15.95610819521952  3.43591834463446 -0.53864447764776
 6  17.30517576667667  3.98688653025302 -1.19451338653865
 6  17.13553614331433  4.10624551625162 -2.74263648784878
 6  17.79351875797580  5.21782704800480 -0.60767022592259
 1 -2.46260198299830  1.51739601500150  3.35154562296230
 1 -6.51450942974297  5.56988236863686  0.68448744044404
 1 -8.72784319151915  1.18292859575958 -3.10572605140514
 1 -3.74013507830783 -3.45523083848385  1.71371943274327
 1 -1.97068419231923 -1.23829149074908  2.74903617971797
 1 -2.91263104220422 -2.71628478967897  4.01357490149015
 1 -3.40016080878088 -0.94110401480148  4.72938496829683
 1 -4.62482499419942 -1.97869695059506  4.04678862936294
 1 -2.30337565126513 -3.06791630893089 -0.32504312811281
 1 -1.48430626302630 -1.65594471077108  0.44087220882088
 1 -0.42020745424542 -2.85994729032903  2.04840905960596
 1 -1.49834455605561 -4.33100023122312  1.83111490949095
 1 -1.83897401120112  3.51097062146215  4.09175508520852
 1 -2.74207519761976  4.94801200720072  4.51015727342734
 1 -2.98503149814981  3.01265226272627  5.07091209720972
 1 -5.12979604350435  6.56078027242724  2.22237755915592
 1 -10.23903303680368  2.97515817291729 -3.07963121482148
 1 -9.98640943884389  4.77402124622462 -2.95694598529853
 1 -9.39299909970997  3.95490390439044 -5.56105130743074
 1 -8.19866937633763  4.99362910831083 -4.44712466746675
 1 -8.15047489648965  3.24298365716572 -4.89864978977898
 1 -8.41783937353735 -1.11178172107211 -4.62010300860086
 1 -8.62184316731673 -2.76441984708471 -3.83352598959896
 1 -9.67146722622262 -1.39190601400140 -3.53223012971297
 1 -4.37574493189319 -3.78525335193519 -1.64405769266927
 1  2.68541967496750 -5.91420936393639  1.08720467736774
 1  2.31230197359736 -5.30860783688369 -0.50981443104310
 1  3.83749587188719 -4.17003628542854  1.81230623822382
 1  2.70632561926193 -3.58438405950595 -1.58077061806181
 1  3.58183279657966 -1.98793235253525 -1.84486695719572
 1  4.44282645664566 -3.84735846504650 -1.92988191409141
 1  5.04907494839484 -1.38651507550755  0.31850373387339
 1  5.20888941624162 -2.34171580398040  1.68889376967697
 1  6.67187471417142 -3.70623381548155  0.41494937893789
 1  6.53763392379238 -2.60365797479748 -1.09458005350535
 1  7.28375730703070 -0.82579590469047  0.02024927042704
 1  7.62375447834783 -1.62533911701170  1.54815920122012
 1  9.19179328862886 -1.78842711791179 -1.10053339143914
 1  8.91210572927293 -4.17706647804780 -0.15315910831083
 1  10.60893023382338 -3.54142834493449 -0.28214832833283
 1  9.64520358175818 -3.41765285678568  1.36005644834483
 1  9.35822497309731  0.06289201540154  0.32193755755576
 1  10.21227132463246 -1.27485401930193  1.55561510151015
 1  11.71921706300630 -2.03544357625763 -0.09128350155015
 1  11.25301138783878 -0.76112901780178 -1.24902623622362
 1  11.65639667316732  1.25740016921692  0.06427687248725
 1  12.56984180748075  0.01925311671167  1.35803408360836
 1  13.53603040374037  0.35103953625363 -1.59006124482448
 1  14.82653199149915 -1.05554376707671  0.55901158115812
 1  14.00981655265526 -1.74672368866887 -0.82472879437944
 1  15.37814880328033 -0.83049624782478 -1.01181807430743
 1  13.40256845104510  2.59161378047805 -0.42426421412141
 1  14.48464516481648  1.71301159035904  0.97726494039404
 1  16.06998865466547  1.31694030673067 -0.91395788648865
 1  15.06828241164117  2.16612052485249 -2.09372075177518
 1  15.06176758135814  4.30484586258626 -0.66319831793179
 1  16.23799656975698  3.59328596999700  0.62259215961596
 1  17.97530121152115  3.20468195939594 -0.94670374997500
 1  16.24827554795479  4.85515204410441 -2.94396675647565
 1  17.88453437693769  4.49287880118012 -3.29658426352635
 1  16.77569776997700  3.16665773577358 -3.18731676627663
 1  18.03655970317032  5.24775599309931  0.34690635483548
 1  18.62357988028803  5.61778593079308 -1.13777069146915
 1  17.23482503340334  6.02545204830483 -0.56732079337934
 1 -4.82081738313831 -7.76065549864986 -0.03742728042804
 1 -6.41380581088109 -7.03697078367837  0.95927943544354
 1 -4.94399256785679 -6.97546912251225  1.51771622822282
 8 -7.74830242184218  6.91980848164817 -0.42156994099410
 1 -9.14947324442444  6.20456610151015 -1.75212089488949

