%nproc=4
%Mem=4GB
# td=(NStates=1) iop(3/107=0140000000,3/108=0140000000) iop(3/107=0140000000,3/108=0140000000) CAM-B3LYP/6-31G(d,p) 

TD

0 1
12 -5.61459296589659  1.18433330763076  0.14507311251125
 6 -5.10330071727173 -2.15667413071307 -0.33855072187219
 6 -3.53572236133613  1.06120640544054  2.83289866316632
 6 -6.07598639433943  4.38982224642464  0.64185439423942
 6 -7.94808057515752  1.27061791249125 -2.42445011851185
 7 -4.36486073937394 -0.31734992679268  1.08260959975998
 6 -4.28526205370537 -1.61506520812081  0.71185353495350
 6 -3.28394151865187 -2.37747104990499  1.51921628532853
 6 -2.89147231823182 -1.42838572947295  2.63659021512151
 6 -3.69666709410941 -0.19165179287929  2.21293587878788
 6 -3.50319335873587 -1.83134657605761  3.91237393679368
 6 -1.95066025922592 -2.83293070237024  0.66477178267827
 6 -0.99081072457246 -3.58555613621362  1.52703629162916
 6  0.26305140564056 -3.84210805150515  0.70263845854585
 8  0.44641470577058 -3.36085339893989 -0.43951018521852
 8  0.99515636133613 -4.82258187548755  1.24240884818482
 7 -4.86266708300830  2.57327670457046  1.49926015771577
 6 -4.02660475027503  2.26550397209721  2.46900750405040
 6 -3.69851935563556  3.55184368656866  3.25992654885489
 6 -4.44551510421042  4.52452398069807  2.63050232153215
 6 -5.17033313751375  3.88394648984898  1.48340443274327
 6 -2.80892625572557  3.63719109490949  4.44200839023902
 6 -4.57950448104810  5.96264368486849  2.89545905070507
 8 -3.90296034403440  6.54923281128113  3.83942784268427
 7 -6.82096589648965  2.60471036683668 -0.74921657795780
 6 -6.88130084488449  3.96048566576658 -0.43262495119512
 6 -7.85356054245424  4.67992471727173 -1.29439354885489
 6 -8.32441189448945  3.62024895479548 -2.12481142554255
 6 -7.75309419991999  2.36975298409841 -1.78961490799080
 6 -8.13586657755776  6.11515142454245 -1.27173668246825
 6 -9.37736209950995  3.68054845304530 -3.19036366916692
 6 -8.78969042274228  4.14508265446545 -4.57312371637164
 7 -6.25011343034303 -0.10121513921392 -1.15207029902990
 6 -7.25478500810081 -0.00933700230023 -2.12255646634663
 6 -7.63558106530653 -1.30874257785779 -2.65739826242624
 6 -6.72833238203820 -2.16240581238124 -1.97759392509251
 6 -5.99197761316132 -1.31914547964796 -1.17810394079408
 6 -8.62964842264226 -1.53036316231623 -3.64900179637964
 6 -6.23247691479148 -3.44811039493949 -2.10240379547955
 8 -6.56203059855986 -4.46542424082408 -2.69678594369437
 6 -5.06523508560856 -3.54342239483948 -0.96213853365336
 6 -5.40399787718772 -4.59489493059306  0.11146481828183
 8 -5.88840461206121 -4.39814882298230  1.22818918231823
 8 -5.21728142634263 -5.86481767816782 -0.37835097969797
 6 -5.36664422862286 -6.81999385268527  0.52885471527153
 6  2.32265323852385 -5.09517063726373  0.63623757815782
 6  3.37989252425243 -3.99321948284828  1.10575847564756
 6  3.98487787798780 -3.13642651275128  0.24115775077508
 6  3.70041438033803 -3.11186612791279 -1.27332683718372
 6  5.17287371317132 -2.41675672327233  0.71739553835384
 6  6.47944281558156 -2.72677560276028  0.04918638603860
 6  7.52296762036204 -1.79933928942894  0.56054174467447
 6  8.94396521782178 -1.86048088168817 -0.10691847434743
 6  9.53644002570257 -3.25410605100510  0.19238578087809
 6  10.01716229532953 -0.91364160156016  0.44446696219622
 6  11.25223252565256 -0.75336494339434 -0.28850761696170
 6  12.27658534713471  0.34935956345635  0.19112596019602
 6  13.57259971577158  0.38367323722372 -0.62634739793979
 6  14.54015231423142 -0.74744414701470 -0.32677682858286
 6  14.27462340194019  1.71667783938394 -0.11960121492149
 6  15.58907309770977  2.10879890809081 -0.99532452745275
 6  16.08059064346435  3.54127888068807 -0.62681329452945
 6  17.40941619071907  3.97758560016002 -1.45336927212721
 6  17.05428801850185  4.14569946164616 -3.01500372457246
 6  17.87221662776277  5.31983724902490 -0.87468692759276
 1 -2.94613033583358  1.12612688808881  3.78236870527053
 1 -6.18276625542554  5.45017039743974  0.57245623732373
 1 -8.95336574377438  1.12089239213921 -3.04727020582058
 1 -3.80781184598460 -3.32601791719172  1.98044610541054
 1 -1.95095221912191 -1.04381204280428  2.61947322342234
 1 -3.24936471557156 -2.82488564976498  4.13508705270527
 1 -3.40877166986699 -1.23629353375338  4.80378240804080
 1 -4.66298881058106 -1.81269034993499  3.92043599409941
 1 -2.36078139183918 -3.47301681898190 -0.23417404120412
 1 -1.43821165356536 -1.91063017931793  0.26520464206421
 1 -0.65549098259826 -2.88957025262526  2.38590280898090
 1 -1.43796851845185 -4.46289342054205  2.06082788078808
 1 -1.94505461926193  3.40251977637764  4.01700761046104
 1 -2.97065805590559  4.55911311731173  4.87319357705771
 1 -3.03248624362436  3.04601559905991  5.20639564556456
 1 -5.36030909480948  6.42301649604961  2.43971929332933
 1 -9.93951308480848  2.69554021112111 -3.32012526422642
 1 -10.10882168006801  4.32178602270227 -2.66337662836284
 1 -9.57743754355436  4.04887330133013 -5.42364756705671
 1 -8.37610712011201  5.08893863926393 -4.36961691669167
 1 -7.98620846984698  3.45720507930793 -4.97279720452045
 1 -8.52357994759476 -1.05939648254825 -4.67867886618662
 1 -8.46418740174017 -2.56290969606961 -4.06405904290429
 1 -9.60694077357736 -1.34746156955696 -3.32185909260926
 1 -3.91628898629863 -3.89667449404940 -1.34562784968497
 1  2.53270440344034 -6.05043298629863  1.00714667156716
 1  2.16541728512851 -4.98745572167217 -0.33942739233923
 1  3.66901902420242 -4.05549483128313  2.15545055265527
 1  2.64573956065607 -3.56753237433743 -1.51540408140814
 1  3.85951056435644 -2.10686424572457 -1.83149562006201
 1  4.50583275727573 -3.75918964816482 -1.76926585248525
 1  4.99937997889789 -1.35264168816882  0.73223510701070
 1  5.36275480278028 -2.41292292469247  1.72515739603960
 1  6.58230575727573 -3.82911610371037  0.17818570257026
 1  6.40660082048205 -2.63955156415642 -0.96957755325533
 1  7.26975590689069 -0.68104142924292  0.56062330783078
 1  7.76417852075208 -1.93234981808181  1.77483186848685
 1  8.90500460976098 -1.77421569676968 -1.19554289238924
 1  8.76970148884888 -3.96719549094909 -0.29926371877188
 1  10.51789112991299 -3.57173137523752 -0.22692280578058
 1  9.54762382378238 -3.46816790829083  1.28404884758476
 1  9.40710986158616  0.10538626482648  0.41418678247825
 1  10.16998709620962 -1.08893542744274  1.43513305330533
 1  11.80698583988399 -1.76030606250625 -0.39758413161316
 1  11.31637772447245 -0.41947485238524 -1.44483581718172
 1  11.86467750125013  1.27190161936194 -0.09709926512651
 1  12.20887571087109  0.06842803420342  1.35230351055106
 1  13.18794559525952  0.11905633793379 -1.56416865556556
 1  14.63679301760176 -0.83453166586659  0.77847352735274
 1  14.08884445544554 -1.69934895119512 -0.55830215171517
 1  15.57057804620462 -0.63335653385339 -0.79871676417642
 1  13.58499669386939  2.60249486858686 -0.26783857155716
 1  14.57114381468147  1.47425771497150  0.90845805970597
 1  16.35406706250625  1.37342595529553 -0.82540903160316
 1  15.09930551395140  1.86407031983198 -1.89977135683568
 1  15.22732413701370  4.27054243224322 -0.71884388248825
 1  16.45874864496450  3.57016365776578  0.46173607400740
 1  18.16246992839284  3.31422291349135 -1.29810889048905
 1  16.21747246764676  4.80069659855986 -3.08770112991299
 1  18.01272719621962  4.75575508880888 -3.25252985808581
 1  16.93841404160416  3.09046011601160 -3.48769680428043
 1  18.23838988618862  5.43489470697070  0.21043270747075
 1  18.95051257355736  5.57550170237024 -1.47542445684568
 1  17.22667421832183  6.23412291539154 -1.13586764806481
 1 -5.19068436983699 -7.82685211831183 -0.08616215391539
 1 -6.32514694499450 -7.00763785038504  0.92445595309531
 1 -4.67481565016502 -6.70872244784478  1.47010146674667
 8 -7.76690428202820  6.87286378717872 -0.48020580458046
 1 -8.89242753985399  6.62847849274927 -2.08186386918692

