%nproc=4
%Mem=4GB
# td=(NStates=1) iop(3/107=0140000000,3/108=0140000000) iop(3/107=0140000000,3/108=0140000000) CAM-B3LYP/6-31G(d,p) 

TD

0 1
12 -5.57211871847185  1.27642251655166  0.15037364256426
 6 -5.03852423962396 -2.13134159745975 -0.41776864366437
 6 -3.37962675177518  1.21099138393839  2.78163353665367
 6 -6.01568036373637  4.53180644484448  0.61521172997300
 6 -8.06077184428443  1.18436928762876 -2.34578225172517
 7 -4.37195144844484 -0.34701289308931  1.03867520632063
 6 -4.20704423192319 -1.62591629322932  0.62599494909491
 6 -3.19771289578958 -2.33997730053005  1.50062442614261
 6 -2.86246941794179 -1.28171106200620  2.63847040314031
 6 -3.56803423082308 -0.00339296699670  2.13490807600760
 6 -3.47803084248425 -1.84333777517752  3.93485618501850
 6 -1.98949414261426 -2.69739714901490  0.64925023052305
 6 -1.00565220872087 -3.63738131873187  1.39886347434743
 6  0.21973707420742 -3.98273211391139  0.51554974967497
 8  0.45477554185419 -3.57734504810481 -0.60021625582558
 8  1.07645449114911 -4.71860147744774  1.30314492179218
 7 -4.83225404170417  2.53078245514551  1.42670290199020
 6 -4.01798388818882  2.34013143484348  2.43961456475648
 6 -3.71173067676768  3.64422292449245  3.14868542474247
 6 -4.44478503120312  4.57975950425042  2.59362863416342
 6 -5.13870997519752  3.99071716691669  1.43698979127913
 6 -2.71910727382738  3.72722009780978  4.23625781518152
 6 -4.62977950855085  6.03956137663766  2.83316282108211
 8 -4.04727477547755  6.61294918291829  3.71297519741974
 7 -6.83038683858386  2.63505340114011 -0.79164082038204
 6 -6.81645436023602  3.99271888908891 -0.41165285398540
 6 -7.86547173357336  4.61234795959596 -1.18777288678868
 6 -8.49146860016002  3.69386631653165 -2.07011595599560
 6 -7.80780967146715  2.39078508730873 -1.84136008250825
 6 -8.25134812571257  6.02547245664566 -1.17412692149215
 6 -9.47590195349535  3.85980637883788 -3.00413504630463
 6 -8.94870632433243  4.02596074227423 -4.47887429142914
 7 -6.42217063606361 -0.20470548824882 -1.01983707570757
 6 -7.28586811641164 -0.00728679727973 -2.02665687638764
 6 -7.59300680788079 -1.32543424702470 -2.67274979757976
 6 -6.65044459325933 -2.19915948774877 -2.09173533923392
 6 -6.01844025942594 -1.45472903800380 -1.05936206660666
 6 -8.48508396619662 -1.79031915791579 -3.80252714891489
 6 -6.35168883598360 -3.56830241414141 -1.93072662776278
 8 -6.79668406390639 -4.59423712211221 -2.50194645974597
 6 -5.06621518361836 -3.50930898349835 -0.91196351615162
 6 -5.37486496389639 -4.64273971507151  0.08821249304930
 8 -5.66159193079308 -4.52613162126213  1.29641600500050
 8 -5.11444114231423 -5.87133833023302 -0.33420656525653
 6 -5.33111067526753 -6.94135598889889  0.65317714751475
 6  2.39392036523652 -4.98892001220122  0.67501145554555
 6  3.37758229322932 -3.97801796269627  1.06079397919792
 6  4.03213260346035 -3.24512738283828  0.11934556955696
 6  3.69151349024902 -3.10335527682768 -1.34492399689969
 6  5.09762618841884 -2.22728777637764  0.50677447624762
 6  6.44586945824582 -2.56614954015402  0.06337780518052
 6  7.65626094969497 -1.74241359685969  0.53646933743374
 6  8.96653747504750 -1.90502533613361 -0.19616739923992
 6  9.40461684338434 -3.33367400780078  0.18579512181218
 6  9.95663624272427 -0.93276351375138  0.38791130663066
 6  11.29054635703570 -0.92761236813681 -0.37896666286629
 6  12.16205389398940  0.32857748524852  0.10802765036504
 6  13.57484994079408  0.49612448234823 -0.56686144934493
 6  14.35855415441544 -0.79501890449045 -0.55800995189519
 6  14.27458339793979  1.78615478707871 -0.05429468426843
 6  15.50703489388939  2.11080910911091 -0.84515951095109
 6  16.02796538093809  3.58451320412041 -0.50705131833183
 6  17.31477672677268  3.89271711331133 -1.27056099129913
 6  17.23567615731573  4.16140103180318 -2.71387361156116
 6  18.12394180028003  5.12000726602660 -0.58443790269027
 1 -2.71202692549255  1.16604087948795  3.69117958635864
 1 -6.00235821462146  5.52353773417342  0.63120211191119
 1 -8.62058246544654  1.04653495639564 -3.09167464626463
 1 -3.91763282808281 -3.30266558195820  1.73590165096510
 1 -1.71294841874187 -1.22597025862586  2.66424770087009
 1 -2.77632741184118 -2.69581274247425  4.20459400340034
 1 -3.20240103280328 -0.98618852325233  4.76432846264627
 1 -4.41202371407141 -2.19132821372137  3.64130808130813
 1 -2.14874018771877 -3.21114063136314 -0.25952657645765
 1 -1.68960679307931 -1.60838995529553  0.38497661926193
 1 -0.63143857735774 -3.31084237983798  2.32529674837484
 1 -1.53394811641164 -4.54241137233723  1.79192099009901
 1 -1.53480359415942  3.60143966836684  4.03206911661166
 1 -2.56855784588459  4.78319552555256  4.37672393009301
 1 -2.95265826082608  2.97451844934493  5.12163716971697
 1 -5.34876794069407  6.56340053445345  2.18798411981198
 1 -10.20553968746874  3.06939759685969 -3.16982023372337
 1 -10.24675547344735  4.55948979307931 -2.69064935563556
 1 -9.76848664846485  4.10740915491549 -5.14224942724272
 1 -8.42030153955396  4.91252099749975 -4.43197315231523
 1 -8.30527037603760  3.10072943174317 -4.56883680848085
 1 -8.28392598219822 -1.33071361426143 -4.87274827312731
 1 -8.35899688268827 -2.79059246434643 -4.09568220522052
 1 -9.56894697419742 -1.51652847624762 -3.61376828352835
 1 -4.27431478887889 -3.89714454105411 -1.65110839773977
 1  2.49924105710571 -6.01788973197320  1.02880883778378
 1  2.19578032143214 -4.95310228632863 -0.37438088768877
 1  3.79147126942694 -3.78440772257226  2.04555956355636
 1  2.49329431613161 -3.38805442654265 -1.62107464846485
 1  3.73401801510151 -2.04033759305931 -1.79277174767477
 1  4.46624879887989 -3.68569229842984 -1.87703662956296
 1  4.84585462636264 -1.08343476747675  0.41081296479648
 1  5.25291381868187 -2.08070970337034  1.58152303260326
 1  6.66386391309131 -3.69931312341234  0.12737062106211
 1  6.27903806420642 -2.59160676967697 -1.14957555305531
 1  7.26970590189019 -0.65777910301030  0.44092133763376
 1  7.68520062296230 -1.98106468956896  1.56240062536254
 1  8.87539164846485 -2.07329560476048 -1.31192453055306
 1  8.67840235893589 -4.14407317871787 -0.19205299769977
 1  10.54031337213721 -3.66893109520952 -0.35898601210121
 1  9.55995505690569 -3.58974006550655  1.20185062776278
 1  9.25821497209721 -0.08387266106611  0.24939030283028
 1  10.04151424892489 -1.04326085998600  1.49952949294929
 1  12.00126526782678 -1.95207523942394 -0.21027540074007
 1  11.06257234393440 -0.76050895579558 -1.43527486108611
 1  11.60469150265027  1.11896632583258  0.03708415321532
 1  12.05033985728573  0.07761895329533  1.24874315451545
 1  13.25477227792779  0.74190862316232 -1.70787302600260
 1  14.26719605790579 -1.34170238293829  0.52074775477548
 1  13.69471504250425 -1.56222523882388 -1.23549987148715
 1  15.39035002340234 -0.50742394059406 -1.07705459795980
 1  13.42222041624162  2.72095671477148 -0.32771455915592
 1  14.32245894619462  1.73919420862086  1.06693390729073
 1  16.26492814861486  1.34335294799480 -0.70824731543154
 1  15.38797438083808  2.05496940974097 -2.00334171387139
 1  15.42560396499650  4.27231260926093 -0.78433043114311
 1  16.12341511161116  3.78084472587259  0.42529242964296
 1  18.14285796719672  3.10350184138414 -1.17275635523552
 1  16.57402812321232  5.08900542944295 -2.86847920772077
 1  18.28524444794479  4.36876638993899 -3.08952355745575
 1  16.70922112231223  3.20472154215422 -3.38059609420942
 1  18.15269131633163  5.09913113061306  0.51071273547355
 1  18.98685620792079  5.31055520772077 -0.94094100850085
 1  17.23355490639064  5.94290379347935 -0.92773683498350
 1 -5.11928723012301 -7.59382881598160  0.02372883518352
 1 -6.21054548484848 -6.97255434203420  1.12221572907291
 1 -4.62822099069907 -6.73682525812581  1.57707216381638
 8 -7.66398398999900  6.86015251605161 -0.35426321032103
 1 -9.08672696979698  6.41987763266327 -1.78539422222222

