%nproc=4
%Mem=4GB
# td=(NStates=1) iop(3/107=0140000000,3/108=0140000000) iop(3/107=0140000000,3/108=0140000000) CAM-B3LYP/6-31G(d,p) 

TD

0 1
12 -5.60677218381838  1.33241811611161  0.03311191639164
 6 -5.00383077027703 -2.17894635793579 -0.29555642244224
 6 -3.29861865096510  1.22015230003000  2.78694406770677
 6 -6.11012980868087  4.55187845204520  0.59317952675268
 6 -8.03919968706871  1.15175602630263 -2.29893756725673
 7 -4.34500875417542 -0.32114030583058  1.01621296009601
 6 -4.26198972647265 -1.58604230583058  0.68054040364036
 6 -3.19176230073007 -2.27398070087009  1.47693205690569
 6 -2.95637880888089 -1.28651154205421  2.66149270537054
 6 -3.50611803920392  0.02035940824082  2.18484306950695
 6 -3.64723776317632 -1.73128657005701  3.94104680408041
 6 -1.94558975217522 -2.53654106340634  0.53859916541654
 6 -1.05413705720572 -3.54348192879288  1.29448303630363
 6  0.24204930543054 -3.91153499419942  0.55599379407941
 8  0.46226629092909 -3.43380069366937 -0.57899413361336
 8  1.08144499019902 -4.76395601290129  1.15983059035904
 7 -4.85910672697270  2.58421779867987  1.53876410811081
 6 -3.93357544734473  2.39144656635664  2.49750035333533
 6 -3.77096660036004  3.67683618581858  3.20670122632263
 6 -4.48181873457346  4.64436596489649  2.59659893119312
 6 -5.20696680088009  4.00004810001000  1.43088918121812
 6 -2.82536789988999  3.95575295109511  4.29885407480748
 6 -4.52009854045405  6.05003242374237  2.82263176797680
 8 -4.01760180818082  6.58497638563856  3.86192009190919
 7 -6.79859365926593  2.63802369816982 -0.72185384168417
 6 -6.85418813361336  3.91125074227423 -0.38784047274727
 6 -7.90397558395840  4.60071679647965 -1.20357446694669
 6 -8.40460991429143  3.60255718561856 -2.06316526092609
 6 -7.72469135963596  2.38186419521952 -1.73458940544054
 6 -8.30534352525253  5.98194810421042 -1.14931444024402
 6 -9.55952031533153  3.78259865806581 -3.08034266706671
 6 -8.97238869256926  4.10783893009301 -4.57983438743874
 7 -6.41686010501050 -0.19338435613561 -1.08823391539154
 6 -7.42795232483248 -0.12382845144514 -2.08263247394739
 6 -7.57915542274228 -1.40436213981398 -2.71198372097210
 6 -6.71531107990799 -2.22460203200320 -1.94201036673667
 6 -6.05218363376338 -1.45509907500750 -1.06556268666867
 6 -8.52313777157716 -1.69517964396440 -3.81471836803680
 6 -6.24943861096110 -3.59835541944194 -1.95936949204920
 8 -6.45322971847185 -4.64842254065407 -2.62896916201620
 6 -5.21654021612161 -3.52892094469447 -0.85533785358536
 6 -5.52924040144014 -4.58050349144915  0.20310398219822
 8 -5.83044881648165 -4.34777378547855  1.28836519991999
 8 -5.26338603680368 -5.93716491289129 -0.29542268686869
 6 -5.40854841904190 -6.98301015431543  0.59822165196520
 6  2.36172714591459 -5.08164928512851  0.42621657605761
 6  3.43409794479448 -4.07144730563056  0.83273117291729
 6  4.00597998819882 -3.20464333443344  0.14191782678268
 6  3.71745608450845 -2.87560250155015 -1.29129863436344
 6  5.27839426522652 -2.40164521212121  0.65293909270927
 6  6.66131100240024 -2.74702762796280  0.10281174857486
 6  7.83978930253025 -1.88730808630863  0.57621331183118
 6  9.16631745304530 -2.06402123572357 -0.20876865936594
 6  9.62188857055706 -3.51769240964096 -0.20926438413841
 6  10.12647322642264 -1.09121935933593  0.48841135663566
 6  11.50140744314431 -1.02607221412141 -0.25784455065507
 6  12.29371706030603  0.17896252375238  0.17168401600160
 6  13.59114156995700  0.40568543844384 -0.43315807900790
 6  14.56884518351835 -0.78528793139314 -0.02242639353935
 6  14.18224416401640  1.76499267086709 -0.11896115091509
 6  15.45221941234123  2.17248527672767 -0.75556055105511
 6  15.94607719211921  3.64422917571757 -0.55184579777978
 6  17.26006125522552  4.05696353795379 -1.39671360656066
 6  16.99366195589559  4.04332922462246 -2.84720694489449
 6  17.84574398049805  5.37820308560856 -0.83054251315132
 1 -2.51698742154215  1.23231750715072  3.61089155755576
 1 -6.20821880068007  5.72143752415241  0.74375336703670
 1 -8.95067547474747  0.99872017491749 -3.08577405620562
 1 -3.61978304310431 -3.02717803320332  1.96643470427043
 1 -1.93593071697170 -1.27757541914191  2.80341161726173
 1 -3.00743052215222 -2.55465862706271  4.50197374137414
 1 -3.57130792349235 -0.86439634403440  4.70216224602460
 1 -4.59328183988399 -1.95025410631063  3.62545649614962
 1 -2.17941325502550 -2.96941645894589 -0.44611523532353
 1 -1.48819665206521 -1.52967208350835  0.53369149074908
 1 -0.62600803430343 -3.15233652925293  2.30344456315632
 1 -1.61426614821482 -4.46186331753175  1.49113091109111
 1 -1.75923603740374  3.59477900230023  3.95102101180118
 1 -2.87546853695369  5.08059526552655  4.46693295099510
 1 -3.33780677567757  3.54643564106411  5.45983098909891
 1 -5.27602066596660  6.77731192559256  2.31105642704270
 1 -9.91500063356336  2.77109776687669 -3.10337358905891
 1 -10.21797259515952  4.55708955305531 -2.71969225992599
 1 -10.00178997879788  4.41152956695670 -4.98448365066507
 1 -8.40885039443944  4.92888263366337 -4.53093304830483
 1 -8.33026287528753  3.27208656745675 -5.10847077187719
 1 -8.30459804940494 -1.02192273517352 -4.62812381068107
 1 -8.44090507350735 -2.65893929902990 -4.33992662966297
 1 -9.71424150365037 -1.63830065346535 -3.64868177487749
 1 -4.20233759115912 -3.97451227782778 -1.21892517941794
 1  2.37485861886189 -6.06680462346235  0.93587954485449
 1  2.15434617801780 -5.31920889698970 -0.73606705630563
 1  3.87194931723172 -4.26232551435143  1.76504151175117
 1  2.66381136783678 -3.06371199229923 -1.63727626862686
 1  3.82927754105411 -2.01763532283228 -1.65033750425042
 1  4.40991316531653 -3.38530225942594 -1.85640456635664
 1  5.11970201110111 -1.41627805180518  0.29032091559156
 1  5.17052557985799 -2.44884651705171  1.80989586988699
 1  6.88543607030703 -3.84211740384038  0.15913379737974
 1  6.66256641704170 -2.55316292529253 -0.94508510401040
 1  7.52948187948795 -0.78882220732073  0.53670091559156
 1  7.96598870177018 -2.25081166426643  1.59376376167617
 1  9.06685079437944 -1.58757703290329 -1.18872221032103
 1  8.97955247394739 -4.22732150355036 -0.63657745014501
 1  10.49834917571757 -3.50625482758276 -0.47861797529753
 1  9.95140420182018 -3.93026411791179  0.71989243194319
 1  9.82772192279228 -0.15768004180418  0.34469983378338
 1  10.33626372387239 -1.63841037493749  1.49752929292929
 1  11.97275241654165 -2.03372340424042 -0.28352272547255
 1  11.41361744844485 -1.16054895979598 -1.47827916151615
 1  11.57514854835484  1.13287771697170  0.10417086188619
 1  12.42983780708071  0.13650484188419  1.22086036623662
 1  13.37807460816082  0.20517494979498 -1.63786602530253
 1  14.76146548484848 -1.15998421112111  0.95012069206921
 1  14.27875344634463 -1.72820183648365 -0.48279460096010
 1  15.57821881028103 -0.51350454865486 -0.47406429892989
 1  13.42055024922492  2.54459907900790  0.00228844114411
 1  14.49669636993699  1.60437072627263  0.95569278317832
 1  16.26126778257826  1.66867548024803 -0.52990948164816
 1  15.51144672807281  2.01127504030403 -1.92281366106611
 1  15.23839524412441  4.35983136113611 -0.83525552365237
 1  15.89443221332133  3.86657329872987  0.56071597199720
 1  17.87080076147615  3.23985547674768 -1.12738181778178
 1  16.24113483388339  4.75568209710971 -3.08448080788079
 1  17.77233315681568  4.36507602090209 -3.32925753085309
 1  16.71245144534453  3.07077814781478 -3.17416545114511
 1  17.88509455665566  5.26075729322932  0.12053371757176
 1  18.78710623292329  5.71315546774677 -1.41451836623662
 1  17.05900745164517  6.06238574167417 -1.14875893719372
 1 -5.04303960536054 -7.96288572167217  0.25989245154515
 1 -6.44964939523952 -6.79989707630763  1.04449795729573
 1 -4.87837600620062 -6.80776235183518  1.54711916851685
 8 -7.87418501010101  6.81868836963696 -0.37252503650365
 1 -8.99959825692569  6.28946459135914 -1.81787747054705

