%nproc=4
%Mem=4GB
# td=(NStates=1) iop(3/107=0140000000,3/108=0140000000) iop(3/107=0140000000,3/108=0140000000) CAM-B3LYP/6-31G(d,p) 

TD

0 1
12 -5.60793229982998  1.26976185048505  0.30178878407841
 6 -5.05153554075408 -2.22885134843484 -0.36010287708771
 6 -3.39687847694769  1.19826011081108  2.69520489378938
 6 -6.35653444914491  4.53692695689569  0.66753696249625
 6 -8.05387115421542  1.12111296199620 -2.37040471397140
 7 -4.45397965126513 -0.40317850965097  1.08957029582958
 6 -4.31921544904491 -1.69508320992099  0.71733408300830
 6 -3.15343846834683 -2.30240354315432  1.51786615031503
 6 -2.95009818081808 -1.34856774767477  2.58798535463546
 6 -3.66764419181918 -0.07821044874487  2.13409799499950
 6 -3.60134317371737 -1.73833727512751  4.02242494189419
 6 -1.96663185638564 -2.61334874417442  0.71925723122312
 6 -0.95067671117112 -3.49561714231423  1.45157874587459
 6  0.28341344184418 -3.78659249994999  0.62345053975398
 8  0.46163622792279 -3.22032934653465 -0.36457269146915
 8  1.06056290199020 -4.76099571687169  1.23835844314431
 7 -5.02821363766377  2.62004138103810  1.53049328102810
 6 -4.10081217101710  2.40590801250125  2.52324292759276
 6 -3.85135463916392  3.64332283448345  3.13436399259926
 6 -4.73303385608561  4.59583111141114  2.63559283058306
 6 -5.46475257945795  3.89473756895690  1.58630472277228
 6 -2.84781014411441  3.93460083588359  4.25126931633163
 6 -4.93565009560956  6.00916833733373  3.01340084488449
 8 -4.27730777877788  6.50216810481048  3.92805670557056
 7 -6.83421722162216  2.55122501830183 -0.67637929422942
 6 -7.01102381718172  3.90539015621562 -0.39407109580958
 6 -8.04958014441444  4.58569529432943 -1.24567867736774
 6 -8.45973542684268  3.54094102400240 -2.11194013841384
 6 -7.77711660216022  2.37587359615962 -1.75315126162616
 6 -8.32957594849485  6.01839174857486 -1.35097460626063
 6 -9.35770013331333  3.81389178737874 -3.24559919271927
 6 -8.67650910461046  4.32509065526553 -4.51362776677668
 7 -6.30046846584658 -0.09362438013801 -1.13075816781678
 6 -7.30338986858686 -0.02129819841984 -2.15010922162216
 6 -7.44467197439744 -1.36635833943394 -2.74149667226723
 6 -6.57635718451845 -2.20335990779078 -2.10225639133913
 6 -5.95107352275228 -1.36128969406941 -1.09831596199620
 6 -8.45347080488049 -1.56600672667267 -3.82963986018602
 6 -6.12903657075708 -3.53863944784478 -1.98249180428043
 8 -6.49550394589459 -4.54500219861986 -2.59143540864086
 6 -5.06369493159316 -3.54016206880688 -0.81149346914691
 6 -5.32534001140114 -4.65728116921692  0.19355302710271
 8 -5.62721849344934 -4.39783879197920  1.32267863126313
 8 -4.95298499669967 -5.80134133053305 -0.21127427202720
 6 -5.08942650685069 -6.98906075937594  0.54441627142714
 6  2.32884385758576 -4.99160028022802  0.61343529792979
 6  3.36972150715071 -4.07869803070307  0.94448234803480
 6  3.97295668586859 -3.17485035513551  0.11250488548855
 6  3.84403874277428 -3.05492043334333 -1.37981748624862
 6  5.11113753955396 -2.33489853745375  0.54940873967397
 6  6.45597046834683 -2.62332525772577 -0.03352188478848
 6  7.64013933753375 -1.82631198669867  0.63934962546255
 6  9.03771459275928 -1.93474830843084 -0.18747653015302
 6  9.59609599129913 -3.38883952435244 -0.02702616031603
 6  9.99520009910991 -0.87676791419142  0.40605312081208
 6  11.41434873727373 -0.87522712961296 -0.36417518371837
 6  12.29011670027003  0.29563419091909  0.12322917051705
 6  13.69979243504350  0.28066293619362 -0.63595835903590
 6  14.54022232123212 -0.95815521812181 -0.42555670657066
 6  14.32963890349035  1.56842301390139 -0.24045330013001
 6  15.52667685808581  1.94936296449645 -0.96260125512551
 6  16.06925951035103  3.42749750255025 -0.70158077127713
 6  17.43916916601660  3.84192203380338 -1.33593752895290
 6  17.30943353305330  4.13673856555656 -2.86064828902890
 6  17.93220262636263  5.16298156345635 -0.54856431533153
 1 -2.74379010181018  1.26698097349735  3.58950941934193
 1 -6.51284926372637  5.65478085848585  0.80604959665967
 1 -8.59586999419942  1.08761906480648 -3.23076855565556
 1 -3.62755382018202 -3.21526684208421  1.93862192299230
 1 -1.94160128402840 -0.99604726632663  2.84390566666667
 1 -3.26996677577758 -2.71010417161716  4.49760330433043
 1 -3.73218401110111 -0.81183108750875  4.68101013081308
 1 -4.62592510421042 -1.89000808170817  3.78676262676268
 1 -2.20179549324932 -3.34765428272827 -0.33633425722572
 1 -1.27108494089409 -1.81849096539654  0.35917403900390
 1 -0.70672610611061 -3.14013530913091  2.40745496419642
 1 -1.26211093269327 -4.57471460266027  1.66333813181318
 1 -1.95789590339034  3.43958348274827  3.92762867256726
 1 -2.75387637773777  4.96749395539554  4.56909316701670
 1 -3.11345434043404  3.54792579007901  5.39254426042604
 1 -5.57690075397540  6.71097529192919  2.29374469586959
 1 -9.76678581208121  2.84817547464746 -3.57705095679568
 1 -10.22132293019302  4.39716356045605 -3.02256254695470
 1 -9.46926672647265  4.37716613061306 -5.30309551185118
 1 -8.05295480488049  5.28352809820982 -4.25066502150215
 1 -7.78660850985099  3.51013037183718 -4.85426535133513
 1 -8.31746933653365 -0.75656619951995 -4.71486248454845
 1 -8.46395737873787 -2.61427483258326 -4.33254589158916
 1 -9.52124220372037 -1.30334715811581 -3.63263016971697
 1 -4.13291064846485 -3.89277410401040 -1.32229551645165
 1  2.50702183518352 -5.96036397939794  0.89862581948195
 1  2.29869061246125 -5.09718669476948 -0.45515896549655
 1  3.77198932123212 -3.90879016081608  1.81974698229823
 1  2.93711869856986 -3.64696031713171 -1.77778031903190
 1  3.84891950525052 -2.02540609990999 -1.57120959145915
 1  4.86138831283128 -3.43270699989999 -1.84886381228123
 1  4.75008504940494 -1.29155557955796  0.40047193069307
 1  4.92155068236824 -2.21755338773877  1.76035091539154
 1  6.80043757045705 -3.53881707380738  0.18720660466047
 1  6.36831699209921 -2.46471408040804 -1.09061965746575
 1  7.39728866016602 -0.70850417551755  0.52347959345935
 1  7.72065416831683 -2.11620820392039  1.73907829312931
 1  8.79162327162716 -1.49005728092809 -1.26849018711871
 1  8.71667618631863 -4.01047981938194 -0.56124991739174
 1  10.58546788758876 -3.74053825592559 -0.70736084958496
 1  9.60926998839884 -3.60147123862386  1.00219066176618
 1  9.69151830243024  0.18170389658966  0.23750911471147
 1  10.18545864336434 -1.06868340224022  1.56046558655866
 1  11.84651979327933 -1.75656568846885 -0.25516989018902
 1  11.13868995569557 -0.83558646354635 -1.34555588918892
 1  11.88335936943695  1.19803423262326  0.02025247004700
 1  12.55361018431843  0.12527371877188  1.20568884908491
 1  13.44780158085809  0.21656608890889 -1.78869110781078
 1  14.73996333463346 -0.89135734843484  0.55430111011101
 1  13.92391796279628 -1.79924894119412 -0.69051537303730
 1  15.43446443484348 -1.16099929812981 -1.23867075957596
 1  13.71355955015502  2.40532515161516 -0.29950173787379
 1  14.74675137543754  1.51551184038404  0.94788200210021
 1  16.22074373017302  1.26658527122712 -0.94398088878888
 1  15.36786236963697  1.91278519131913 -2.05830721042104
 1  15.48235964056406  4.03703908190819 -1.27791979007901
 1  16.05028779887989  3.67139378077808  0.34407430783078
 1  18.08984266566657  3.17909940114011 -1.22001108070807
 1  16.57497821822182  4.80388691759176 -3.22301466126613
 1  18.30771669516952  4.45393490679068 -3.26264086918692
 1  16.99154935513551  3.19374044404440 -3.07311534613461
 1  17.90514656185618  4.86516773427343  0.54620628482848
 1  18.92980050235024  5.39272342454245 -0.87443435783578
 1  17.28134968586859  6.06977648074808 -0.71493555485549
 1 -4.40204550595059 -7.78815824892489  0.15524198649865
 1 -6.24131856215622 -7.30317740434043  0.37338084558456
 1 -4.92531069966997 -6.76497807340734  1.63501795839584
 8 -7.85869346094610  6.81550805160516 -0.50036782078208
 1 -9.16132442954295  6.28506415131513 -2.15951163396340

