%nproc=4
%Mem=4GB
# td=(NStates=1) iop(3/107=0140000000,3/108=0140000000) iop(3/107=0140000000,3/108=0140000000) CAM-B3LYP/6-31G(d,p) 

TD

0 1
12 -5.55860736733673  1.21666654095410  0.09967857305731
 6 -5.03442382958296 -2.06660512381238 -0.27516438323832
 6 -3.41771056015602  1.18471875667567  2.77427280058006
 6 -6.19506830253025  4.57248051225123  0.67091730053005
 6 -7.90726649374937  1.20574142484248 -2.53723139663966
 7 -4.39517377067707 -0.24269246104610  1.02100343914391
 6 -4.29383291079108 -1.55060876247625  0.72942529212921
 6 -3.23974709920992 -2.26380968376838  1.50328469216922
 6 -2.95809898089809 -1.35133802470247  2.56452300840084
 6 -3.70743817121712 -0.01983461116112  2.10211479667967
 6 -3.51537457685769 -1.73186662806281  3.96065876527653
 6 -1.96752194539454 -2.68061547084708  0.64010931643164
 6 -0.90049169266927 -3.56869445004500  1.44342793079308
 6  0.19128422892289 -3.91623546424642  0.59204739943994
 8  0.39595966026603 -3.49229654325433 -0.55058129232923
 8  1.07015386108611 -4.77151676897690  1.16159076637664
 7 -4.86052686898690  2.61845122202220  1.42660289198920
 6 -4.00705279507951  2.40691811351135  2.43205380868087
 6 -3.77426693039304  3.71498000020002  3.20139069526953
 6 -4.55794634733473  4.52601412971297  2.62142141344134
 6 -5.28600470467047  3.93503159835984  1.47582367466747
 6 -2.92954831793179  3.70601797759776  4.46230041944194
 6 -4.71832836343634  5.89530695119512  2.99992949774978
 8 -4.10636068406841  6.51809969796980  3.85428932883288
 7 -6.83631743164316  2.72458235403540 -0.74410606690669
 6 -7.01627434223422  3.95846546374637 -0.36544823352335
 6 -7.85468065446545  4.64812153695370 -1.14548865836584
 6 -8.36678613191319  3.70144707460746 -2.14094303870387
 6 -7.69329822032203  2.48023403220322 -1.88302424892489
 6 -8.39863285418542  6.00843075247525 -1.09457896669667
 6 -9.43519788308831  3.79100949914992 -3.21590622342234
 6 -8.81692314601460  4.19646779297930 -4.62430883488349
 7 -6.38088650765076 -0.07304232193219 -1.16982207420742
 6 -7.32264179377938 -0.01051712031203 -2.18284249494950
 6 -7.58667617481748 -1.37610931453145 -2.72581510411041
 6 -6.81574112291229 -2.20743031483148 -1.97051321702170
 6 -5.99800821622162 -1.31449501460146 -1.07542367276728
 6 -8.52244770257026 -1.59804993099310 -3.84044094029403
 6 -6.16308997609761 -3.59030461436144 -2.00879443454345
 8 -6.61360575607561 -4.60043774217422 -2.55968223332333
 6 -5.07677623972397 -3.52113016561656 -0.83251557135714
 6 -5.31597907530753 -4.60581602270227  0.21415508730873
 8 -5.77286305790579 -4.36928593669367  1.29053541694169
 8 -5.05675537373737 -5.84997619401940 -0.22856600120012
 6 -5.22533009720972 -6.82472432573257  0.75738756855686
 6  2.32936390959096 -5.08792991319132  0.53457741214121
 6  3.33763829882988 -4.25371553245325  0.96509440924092
 6  4.07794718491849 -3.27158002810281  0.24177781278128
 6  3.76895123402340 -3.25114005530553 -1.31420092459246
 6  5.23488991479148 -2.53366841444144  0.72264606340634
 6  6.63922879417942 -2.90933385858586  0.09241070847085
 6  7.70799612321232 -1.90405976147615  0.59156484698470
 6  9.04249507080708 -1.98583341694169 -0.08159594209421
 6  9.66270265196520 -3.43289392979298  0.00720726302630
 6  10.05949652875288 -0.92941317871787  0.37022953845385
 6  11.46454375677568 -0.82430203710371 -0.28901766796680
 6  12.24193188178818  0.35888051555156  0.17892474007401
 6  13.59165162096209  0.57424229412941 -0.57808257145715
 6  14.44072237123712 -0.71214061666167 -0.50316446734673
 6  14.25874181378138  1.82297846944694 -0.20169942474247
 6  15.37772196259626  2.16645467366737 -1.05378037303730
 6  16.03998658305830  3.55307005980598 -0.56664727792779
 6  17.34825007410741  3.93476131773177 -1.32135607080708
 6  17.17762035173517  3.99917480918092 -2.82169439363936
 6  17.98660806690669  5.23567883318332 -0.69539899879988
 1 -2.63024874767477  1.34810908630863  3.52868333673367
 1 -6.50185816461646  5.50921630203020  0.73593258495850
 1 -8.47762817001700  1.11800210311031 -3.55606108490849
 1 -3.64615568036804 -3.31552686808681  1.70107816861686
 1 -1.89064618851885 -1.04625228682868  2.78561983808381
 1 -3.13609338843884 -2.55739890109011  4.43661720572057
 1 -3.55997679037904 -0.68974887928793  4.60449247904790
 1 -4.74607711941194 -1.75715479637964  3.78605255575558
 1 -2.29098441214121 -3.07892741004100 -0.30377100090009
 1 -1.46742457485749 -1.70091920822082  0.64951307290729
 1 -0.63361879537954 -2.99387068266827  2.41757597629763
 1 -1.50362508410841 -4.39932706390639  1.90673247124712
 1 -1.90986109990999  3.45075459985999  4.37050295999600
 1 -2.91253224332433  4.70796800280028  4.89767602530253
 1 -3.42353534853485  3.09258025552555  5.29400440644064
 1 -5.57460052395239  6.48701289568957  2.30135545694569
 1 -10.09634876837684  2.94053471057106 -3.39984323602360
 1 -10.39180997889789  4.58544238833883 -3.05261555225523
 1 -9.59585938573857  4.13591200520052 -5.40448565086509
 1 -8.41886139553955  5.15441518691869 -4.42903285828583
 1 -7.84967481648165  3.55454481328133 -4.97836776157616
 1 -8.29583717331733 -0.86097664056406 -4.56040703900390
 1 -8.40884186718672 -2.57838124322432 -4.20373301030103
 1 -9.48122820232023 -1.39146596999700 -3.61554846154615
 1 -4.24042139953995 -3.98165299189919 -1.36638992589259
 1  2.76360749374938 -6.17375531853185  0.99480543744374
 1  1.99680042344234 -5.07505448154815 -0.52146559615962
 1  3.52054417671767 -4.49778906070607  2.21824683228323
 1  2.76685167186719 -3.22114773587359 -1.55712825382538
 1  4.09955456875688 -2.22708626792679 -1.56487895839584
 1  4.15844801880188 -3.99626335553555 -1.94531345724572
 1  5.32235227612761 -1.40915733973397  0.33427531103110
 1  5.18319684698470 -2.55287692009201  1.71219609990999
 1  7.05043256995700 -3.90506369846985  0.43413129712971
 1  6.46898705910591 -3.04839244824482 -0.98237883338334
 1  7.31739067036704 -0.88304162926293  0.52642988848885
 1  7.93365546844684 -2.09917650075008  1.63004739003900
 1  8.95600971027103 -2.06579485468547 -1.13508684678468
 1  9.07513203190319 -4.31392016341634 -0.63588738113811
 1  10.71785112591259 -3.41381558365837 -0.43235334883488
 1  9.63274233563356 -3.72491358285829  1.12686312901290
 1  9.51503065366537  0.18220394659466  0.25198056185619
 1  10.36335643314331 -1.20937747164716  1.39611915191519
 1  12.01929707100710 -1.73004303620362  0.00574620142014
 1  11.39610569726973 -0.81747465236524 -1.33252458605861
 1  11.74550558405841  1.39088351755176 -0.02700225542554
 1  12.56585140844084  0.23994518591859  1.46095437563756
 1  13.43349014971497  0.91064549684968 -1.53800603930393
 1  14.63277261556155 -1.11638985168517  0.66886256625663
 1  13.65672124312431 -1.61504052035204 -1.02382870437044
 1  15.36332732113211 -0.58593179137914 -1.14277116961696
 1  13.54815300950095  2.69179379847985 -0.21884367206721
 1  14.40998769906991  1.71397168636864  0.86045325922592
 1  16.33196485228523  1.46769538223822 -0.90513700440044
 1  15.08891447484749  2.14062797559756 -1.94452583228323
 1  15.21555295989599  4.34773015101510 -0.78384038213821
 1  16.20103287338734  3.52097873927393  0.59009891029103
 1  18.04663834523452  3.07309880108011 -1.21002008160816
 1  16.57169789018902  4.96316284518452 -3.17468982878288
 1  18.09896582008201  4.37834734803480 -3.25296990209021
 1  16.86334653485349  3.03046411641164 -3.13872190679068
 1  18.05630167736773  5.23480469796980  0.40521218541854
 1  19.07249477177718  5.20297444964497 -1.16208312271227
 1  17.44799635053505  6.04041354445445 -1.17056111741174
 1 -4.78734403580358 -7.91998143124312  0.37734419671967
 1 -6.37851228152815 -7.13488057465747  1.01346485398540
 1 -5.00400856945695 -6.58235981158116  1.80368482508251
 8 -7.88972656425643  6.71986848764876 -0.35326311031103
 1 -9.44389268636864  6.30792643754375 -1.66853253605361

