%nproc=4
%Mem=4GB
# td=(NStates=1) iop(3/107=0140000000,3/108=0140000000) iop(3/107=0140000000,3/108=0140000000) CAM-B3LYP/6-31G(d,p) 

TD

0 1
12 -5.57125863246325  1.21634650895090  0.15720432563256
 6 -5.05772615981598 -2.12063052635264 -0.31743861066107
 6 -3.29685847494749  1.12238252305231  2.75395076837684
 6 -6.19573836953695  4.51556482068207  0.68623883268327
 6 -7.92718848594860  1.16078692939294 -2.42178985248525
 7 -4.39052330563056 -0.26999519131913  0.97856919571957
 6 -4.29345287278728 -1.63114681628163  0.64236658625863
 6 -3.26738986348635 -2.38951225402540  1.47949231293129
 6 -2.85784895589559 -1.29937282818282  2.64446100220022
 6 -3.58171559895990 -0.05872850055005  2.06528111331133
 6 -3.50441348074807 -1.68355179657966  3.99042174157416
 6 -1.97081227442744 -2.81251866116612  0.59576488198820
 6 -1.03958560206021 -3.73073065366537  1.44029761776178
 6  0.31354645514551 -4.06250009070907  0.70325852055205
 8  0.51891195549555 -3.66720403400340 -0.39081531573157
 8  1.07296414211421 -4.82422203950395  1.36082068936894
 7 -4.82785360166017  2.57736711361136  1.41994222592259
 6 -3.92397448724873  2.38981640334033  2.40332093539354
 6 -3.61318082178218  3.60672917511751  3.12200275647565
 6 -4.46413696639664  4.56796832513251  2.51739101040104
 6 -5.21548765296530  4.00480857605761  1.44551064336434
 6 -2.83169853295330  3.71183855965597  4.31979616901690
 6 -4.57140367096710  5.97419483998400  3.07608711351135
 8 -3.90998104610461  6.46951483948395  3.91581548144814
 7 -6.90185398529853  2.65827572337234 -0.62658431473147
 6 -6.90270298509851  3.94033365056506 -0.34902659135914
 6 -7.95960114651465  4.60074679947995 -1.15845995549555
 6 -8.46724617791779  3.69496642654265 -2.13918286268627
 6 -7.70978986948695  2.49279528832883 -1.79461540804080
 6 -8.25055804670467  6.06509641904190 -1.09655916471647
 6 -9.30159452275228  3.85749614781478 -3.16736136893689
 6 -8.82408386208621  3.97772591879188 -4.48406481048105
 7 -6.25489390839084 -0.13699871757176 -1.10867595959596
 6 -7.26571610121012  0.04265819721972 -2.07136134683468
 6 -7.53197070427043 -1.24409611321132 -2.77799032163216
 6 -6.70729027782778 -2.17601717351735 -2.07645381108111
 6 -5.94444285968597 -1.41199476457646 -1.17876400680068
 6 -8.36558201600160 -1.46392651865187 -4.01373827002700
 6 -6.21734540164016 -3.57210279417942 -2.03197675277528
 8 -6.52222661816182 -4.51474917331733 -2.73305957105711
 6 -5.13878244034403 -3.59198725132513 -0.89868218801880
 6 -5.55184266166617 -4.62761820292029  0.16955062686269
 8 -5.88848462006201 -4.40268927702770  1.25291165456546
 8 -5.09610930913091 -5.80419161556156 -0.21273441804180
 6 -5.59452701690169 -6.96253810711071  0.58617044684468
 6  2.27312828602860 -5.16589770997100  0.73146710111011
 6  3.30909544454445 -4.10254041494149  1.09259715951595
 6  4.04331372157216 -3.32800567066707  0.23515715071507
 6  3.72301664056406 -3.20981592289229 -1.21194069856986
 6  5.11935836163616 -2.54398944654465  0.83072687148715
 6  6.56122099339934 -2.72738566376638  0.01356282368237
 6  7.63040836443644 -1.66615597109711  0.59473516401640
 6  8.96312713401340 -1.95246007960796 -0.04355213771377
 6  9.60140652235224 -3.28120876127613  0.14379092139214
 6  9.79762034113411 -0.90154039143914  0.37677019251925
 6  11.26007330973097 -0.87316692359236 -0.41244001020102
 6  12.18582627122712  0.32304693219322  0.04182102970297
 6  13.53805626142614  0.53516838673867 -0.60635539873987
 6  14.43536183518352 -0.68403780638064 -0.43391754265427
 6  14.19762570217022  1.86756292789279 -0.23747300210021
 6  15.38546273667367  2.20598862706271 -1.12936793179318
 6  15.98089067346735  3.55713046584658 -0.66090670387039
 6  17.28451370047005  4.00638848044805 -1.20248418361836
 6  17.29148173787379  4.04166905860586 -2.85331755595560
 6  17.92119152525252  5.29645491079108 -0.71387084598460
 1 -2.61410713351335  1.04081835723572  3.60203067146715
 1 -6.42898087688769  5.44565994639464  0.72515150685068
 1 -8.79830023722372  1.23115341824182 -3.31668714751475
 1 -3.76146721152115 -3.21175649104910  1.98801686248625
 1 -1.80264738863886 -1.18195585718572  2.79566084218422
 1 -3.19739951905191 -2.62524568576858  4.23592713671367
 1 -3.18651944464446 -1.07483738813881  4.81148317811781
 1 -4.55455796749675 -1.67646672757276  3.84623857435744
 1 -2.41585689938994 -3.40542005930593 -0.33991461526153
 1 -1.54975280768077 -1.89425854215422  0.34107222882288
 1 -0.76181161466147 -3.14116541214121  2.38743296199620
 1 -1.42746746834683 -4.74362149334933  1.87183898189819
 1 -1.68618873267327  3.42982250665067  4.16942285198520
 1 -2.86136712681268  4.79774698069807  4.60381663936394
 1 -3.17611060606061  3.18182918041804  5.11814682068207
 1 -5.35272833673367  6.49511370577058  2.43296861826183
 1 -10.19451858535854  3.02959361646165 -3.02574582628263
 1 -10.22877367526753  4.65291913601360 -3.07233752445245
 1 -9.41054085388539  3.77430584458446 -5.43314851715172
 1 -8.18462797219722  4.86036578197820 -4.67442739773977
 1 -7.99953980298030  3.12235159395940 -4.63542346714671
 1 -7.55330291989199 -1.19091963486349 -4.94771576987699
 1 -8.49616059905991 -2.57151055615562 -4.11762439943994
 1 -9.45769584908491 -1.01250807420742 -4.02250915761576
 1 -4.18230558795880 -3.94011883848385 -1.28495178207821
 1  2.48083921692169 -6.07976591959196  1.29399535643564
 1  2.19785052845285 -5.39360633673367 -0.23491694129413
 1  3.71510363266327 -4.09928921072107  2.29093410101010
 1  2.66090107680768 -3.31313693479348 -1.52648518951895
 1  3.82346695999600 -2.15573913321332 -1.61274374487449
 1  4.36450862486249 -3.78309203840384 -1.68917784368437
 1  4.88958899979998 -1.45406183018302  0.92003388688869
 1  5.36598512581258 -2.78640027242724  1.77078195849585
 1  6.83888141484148 -3.70738393049305  0.04292217621762
 1  6.37781794219422 -2.36267387638764 -1.03209380488049
 1  7.20776970827083 -0.77706103120312  0.11789903540354
 1  7.75551765466547 -1.68795537863786  1.66991137643764
 1  8.78982309160916 -1.77055533073307 -1.29504284238424
 1  8.83058757745775 -4.06321509290929 -0.09583337573757
 1  10.56958629942994 -3.30920512261226 -0.49511962546255
 1  9.88452751415142 -3.58794988648865  1.15525596829683
 1  9.35023417401740  0.10166589278928  0.22019738353835
 1  10.17988808630863 -1.08499503340334  1.49264880488049
 1  12.01792693399340 -1.74490452235224 -0.30818519171917
 1  11.06568265496550 -0.77897080198020 -1.58570990459046
 1  11.68763979747975  1.32158658785879 -0.33186274147415
 1  12.41559638293829  0.54469566096610  1.23450173037304
 1  13.42484928562856  0.67768220052005 -1.71655389408941
 1  14.60429976827683 -0.84954316701670  0.66625230523052
 1  13.96085165616562 -1.50169918621862 -1.10436675817582
 1  15.50581156955696 -0.54939813801380 -0.83446033853385
 1  13.49408760296030  2.61062568166817 -0.51223301100110
 1  14.59167586788679  2.02391268046805  0.75198241214121
 1  16.18222987878788  1.38981759445945 -1.09851634233423
 1  15.07010259365937  2.28376228902890 -2.16065744544454
 1  15.20305170977098  4.35632101010101 -1.07463946204621
 1  15.98855162526253  3.65080172157216  0.26643654405441
 1  17.83409709110911  3.24933642484248 -0.78405748534854
 1  16.49620034043404  4.73694022292229 -3.07774013381338
 1  18.16262218571857  4.56327584088409 -3.22442704780478
 1  17.23385358555856  2.98239930993099 -3.30789882448245
 1  18.21180722792279  5.19458067556756  0.43504516871687
 1  18.64058158045805  5.85824997719772 -1.34291120552055
 1  17.06836838773877  6.06764626772677 -0.84701876317632
 1 -5.59682498389839 -7.75676510961096 -0.14546808450845
 1 -6.71293572387239 -6.92302938953895  0.86771027852785
 1 -5.06573474207421 -6.98827040264026  1.39608406500650
 8 -7.74006159775978  6.96857335813581 -0.45488327232723
 1 -9.00498879597960  6.19095474037404 -1.78379406220622

