%nproc=4
%Mem=2GB
# td=(NStates=1) iop(3/107=0140000000,3/108=0140000000) iop(3/107=0140000000,3/108=0140000000) CAM-B3LYP/6-31G(d,p) 

TD

0 1
12 -6.86844941704170  0.66266541064106  0.09502712221222
 6 -4.50527763426343 -2.06238466026603  0.40405068206821
 6 -4.31105292069207  2.67602923602360  1.03604648624863
 6 -8.96638934363436  3.20414443854385 -0.31719122082208
 6 -9.56547464506451 -1.70144317391739 -0.52013207190719
 7 -4.66375144704470  0.38265766346635  0.59142817491749
 6 -3.89903716931693 -0.90434014081408  0.79145970137014
 6 -2.57126054465447 -0.64697645684568  1.08840090239024
 6 -2.45751571737174  0.83950409920992  1.29666182868287
 6 -3.93275953885389  1.28363844904490  1.02137691239124
 6 -2.04713099879988  1.25150694659466  2.80354491729173
 6 -1.62793154155416 -1.24646721012101 -0.04793346704670
 6 -0.14637275557556 -1.33856556315632  0.61755082858286
 6  0.77436851605161 -1.40531776867687 -0.58203637743774
 8  0.76293636173617 -0.95233784628463 -1.75173616381638
 8  1.83176346294629 -2.11173147174717 -0.16045096759676
 7 -6.66643838603860  2.43368373837384  0.41242499039904
 6 -5.53839440034003  3.17068571177118  0.69398569476948
 6 -5.85051926712671  4.59134881968197  0.66543141174117
 6 -7.07888860226023  4.76799288978898  0.29119570287029
 6 -7.59567127102710  3.53851265966597  0.04947977937794
 6 -4.99025394569457  5.70016744724472  1.02195986398640
 6 -7.85077663896390  6.08383530363036  0.16651617531753
 8 -7.29526344254425  7.18092970957096  0.50655851265127
 7 -8.86444999849985  0.79750060926093 -0.36798944804480
 6 -9.50874454685469  1.93828856415642 -0.53666471877188
 6 -10.70551718201820  1.74675454655466 -1.01027680888089
 6 -10.89837419491949  0.39855075947595 -1.06076693219322
 6 -9.76237790109011 -0.31126929012901 -0.66970904760476
 6 -11.80581735703570  2.73635982908291 -1.22304695549555
 6 -12.11932505300530 -0.35607917021702 -1.52056018971897
 6 -11.97677453955396 -0.74201636683668 -3.04997779247925
 7 -7.08067455035504 -1.38963152445245 -0.19662230673067
 6 -8.25473813541354 -2.07490748744875 -0.47011020902090
 6 -7.83280086518652 -3.59094641704170 -0.39426043614361
 6 -6.33606922812281 -3.70272943384338 -0.09647790839084
 6 -5.92087837653765 -2.25259407390739  0.02243842814281
 6 -8.72590111361136 -4.80287766556656 -0.66713952985299
 6 -5.15765196969697 -4.51396719481948  0.04546257195720
 8 -5.07552930163016 -5.62312285058506 -0.05347484088409
 6 -3.91512523792379 -3.51324188338834  0.43188783598360
 6 -3.48176168706871 -3.86911308680868  1.77797751075107
 8 -4.17615285538554 -4.12648938373837  2.90185885568557
 8 -2.09325100000000 -4.06720302560256  1.64966490569057
 6 -1.17661618371837 -4.27029211931193  2.85405983118312
 6  3.04113600640064 -2.27266244314431 -1.07802904700470
 6  4.15133890129013 -1.25567256835684 -0.82810834313431
 6  5.20023077847785 -0.93729060046005 -1.65452165376538
 6  5.38309229302930 -1.64115725042504 -2.82542952515251
 6  6.10319414401440  0.22327467456746 -1.07064362286229
 6  7.50256895089509 -0.47739352145215 -0.64277101440144
 6  8.30167272757276  0.55199083368337 -0.09581806230623
 6  9.84006709610961 -0.18150507080708  0.38755044934493
 6  9.70256777307731 -0.88911772647265  1.90123449224923
 6  11.04443677367737  0.69090394459446  0.25965080348035
 6  12.22058732923292  0.09414072127213  0.22445075627563
 6  13.43290483308331  1.03944121882188  0.01151404980498
 6  14.88844517971797  0.30259353745375  0.33106776887689
 6  15.14416940504050 -0.17125940644064  1.70168009200920
 6  15.94665429382938  1.33772867486749 -0.04057085178518
 6  17.34056353445344  0.74736996139614 -0.41795866976698
 6  18.50197974537454  1.81892908410841 -0.48309845664566
 6  19.97732993409341  1.22096059085909 -0.75226531023102
 6  20.16269607090709  0.55869129942994 -2.22053784498450
 6  21.05277244614462  2.19871128912891 -0.47099219511951
 1 -3.68170880918092  3.27258850985099  1.50254965666567
 1 -9.98493247574758  4.02319140424042 -0.22072570647065
 1 -10.38976146774677 -2.40472087138714 -0.93952677857786
 1 -2.36582909970997 -1.00406802460246  2.09586963526353
 1 -1.55415475407541  1.52199267546755  0.60247670107011
 1 -0.86411779547955  0.94634294869487  3.26613732483248
 1 -2.00960913481348  2.43877245364536  2.82558867666767
 1 -2.75411774427443  0.66311419671967  3.56338220732073
 1 -2.31858087838784 -2.05300657365737 -0.42506029282928
 1 -1.76639180818082 -0.39665113801380 -0.93592338313831
 1  0.18381637993799 -0.20290172347235  1.23764963016302
 1  0.22252853305331 -2.25909224302430  1.31578181028103
 1 -3.89220375077508  5.66412424032403  0.55103006070607
 1 -5.54472475307531  6.60750342624262  0.86487339343934
 1 -4.61428245644565  5.36517547854785  2.18347611991199
 1 -9.04513752785279  5.98278338753875 -0.32441881768177
 1 -12.17107666126613 -1.35877674517452 -1.16549097629763
 1 -12.96774298929893 -0.05137873807381 -0.90992862926293
 1 -12.86723454655466 -1.84401651705171 -3.26438355545555
 1 -12.05701266506651  0.05326274777478 -3.64490666016602
 1 -11.21107793219322 -1.27188050505051 -3.13020962836284
 1 -8.81641082438244 -4.93730028562856 -1.52523475147515
 1 -7.91805702030203 -5.78955896849685 -0.67395704760476
 1 -9.45080236023602 -5.16651861306131 -0.01198658915892
 1 -3.07036661806181 -3.39634335923592 -0.21431973877388
 1  3.39296091149115 -3.26762403620362 -0.90683640074007
 1  2.34864915371537 -1.96648256325633 -2.23210344564456
 1  3.96207353505351 -0.70629337773777  0.06205980758076
 1  4.35920897789779 -1.45848932143214 -3.46315643064306
 1  6.39964354275428 -1.39264794019402 -3.22888411231123
 1  5.19549337673767 -2.88257087138714 -2.70486467026703
 1  5.82904332623262  0.85183052045205 -2.31932454965497
 1  5.76265137453745  0.94831037883788 -0.36437070047005
 1  7.07813899279928 -1.10667886498650  0.39336105770577
 1  7.76045144354435 -1.14420321062106 -1.44128360426043
 1  8.39667179857986  1.41355194999500 -0.86993977927793
 1  7.59405790389039  1.05624081228123  0.96739244764476
 1  10.13791623872387 -1.00363780748075 -0.23253041064106
 1  8.31968421272127 -1.06203501920192  1.87053541434143
 1  10.58867493689369 -2.10968484968497  2.09333122452245
 1  9.84013722532253 -0.02515373777378  2.86790809590959
 1  11.19675331313131  1.39385214511451 -0.70156732833283
 1  11.23013275987599  1.56860573617362  1.16570045034503
 1  12.42469001120112 -0.32070450995099  0.99544322762276
 1  12.16204835883588 -0.70232845344534 -0.47591058855886
 1  13.55682055205521  1.46295584058406 -0.71046995159516
 1  13.21511355615561  1.71927617891789  0.92637842724272
 1  15.02572399819982 -0.57899541554155 -0.47226541774177
 1  15.00777067696770  0.74479487498750  2.31163393639364
 1  14.56628390189019 -1.19773744564456  2.02232973107311
 1  16.11626865996600 -0.57203078617862  1.89347582528253
 1  15.53223435833583  1.97914790819082 -0.65426540124012
 1  16.12790682328233  2.02327186268627  0.96614493769377
 1  17.62403371847185 -0.07137396679668  0.54884507120712
 1  17.30133765796580  0.05672384158416 -1.20729210661066
 1  18.39851485858586  2.56024257205720 -1.40180316861686
 1  18.18296829292929  2.40877478437844  0.26384305480548
 1  20.18584114531453  0.35267811401140  0.02970632143214
 1  19.83790210821082  1.28035308490849 -2.91219334453445
 1  21.23776806680668  0.49050724892489 -2.36213034643464
 1  19.48948167516752 -0.36518423682368 -2.50580865556556
 1  20.84293107170717  2.54775435453545  0.53938469206921
 1  21.91530927122712  1.61699828252825 -0.73142585758576
 1  20.99637629052905  3.06770425762576 -1.12071686798680
 1  0.02496687158716 -4.46629937933794  2.62581092909291
 1 -1.71472115311531 -5.28799607330733  3.06728736533653
 1 -1.67783179647965 -3.52653113021302  3.71463561676168
 8 -11.73277165146515  3.93500830003000 -1.09823163686369
 1 -12.58588910041004  2.38761000110011 -2.00619122412241

