%nproc=4
%Mem=4GB
# td=(NStates=1) iop(3/107=0140000000,3/108=0140000000) iop(3/107=0140000000,3/108=0140000000) CAM-B3LYP/6-31G(d,p) 

TD

0 1
12 -5.61587309390939  1.21555642994299  0.20124873007301
 6 -5.10143053025303 -2.15229369266927 -0.35466233303330
 6 -3.27289607870787  1.18104838963896  2.82650802410241
 6 -6.12665146084608  4.55333859805981  0.62325253405341
 6 -7.94642040914091  1.13261411211121 -2.26964463796380
 7 -4.31801605490549 -0.26263445524552  1.01614295309531
 6 -4.27150067756776 -1.59585328692869  0.66132848244824
 6 -3.26068919341934 -2.30397370017002  1.56567093079308
 6 -2.90989416041604 -1.27581047194719  2.60012656875688
 6 -3.47033446084608 -0.04531715941594  2.08461304650465
 6 -3.50778381778178 -1.84868831023102  3.97766046544655
 6 -1.95806099929993 -2.69431684098410  0.59332463796380
 6 -0.96360800430043 -3.67983556415642  1.38069165716572
 6  0.26984208470847 -4.05039888058806  0.51276947164716
 8  0.43176324062406 -3.66064337793779 -0.61930816501650
 8  1.07937478317832 -4.84943456075607  1.18251285858586
 7 -4.81959277557756  2.57526690359036  1.48694892659266
 6 -3.96314840464046  2.34354177587759  2.47108771207121
 6 -3.70017952165217  3.63511201340134  3.16377693389339
 6 -4.47453800650065  4.56481801010101  2.52131140244024
 6 -5.20617672187219  3.92819091429143  1.44606069836984
 6 -2.71297666076608  3.87881525732573  4.27486167556756
 6 -4.51015754635463  6.01378879937994  2.89577908270827
 8 -3.85915596359636  6.57597548554855  3.80622452235224
 7 -6.82671647154715  2.59121901770177 -0.73805546184618
 6 -6.85034774957496  3.94730434763476 -0.40396208490849
 6 -7.78901408780878  4.62384910971097 -1.28934304380438
 6 -8.40113956725673  3.55693262316232 -2.05825476987699
 6 -7.72116100660066  2.42707871667167 -1.67003294979498
 6 -8.19937292819282  5.97914782418242 -1.14196370517052
 6 -9.35047941124112  3.86750714891489 -3.19873450625062
 6 -8.81480293399340  3.98969711591159 -4.61720812481248
 7 -6.43621204020402 -0.11001601930193 -1.07144223622362
 6 -7.41234076367637 -0.10551662026203 -1.99891410211021
 6 -7.60207771497150 -1.33425512911291 -2.76862938553855
 6 -6.71891143994399 -2.16903647544754 -2.07067323302330
 6 -6.02011042644264 -1.41081464656466 -1.05740187058706
 6 -8.55804126192619 -1.57914804080408 -3.89980687688769
 6 -6.27344101120112 -3.56735231913191 -2.00781433653365
 8 -6.63042743824382 -4.61026872527253 -2.60647691279128
 6 -5.08043660576058 -3.59309736233623 -0.78735105490549
 6 -5.36801427882788 -4.54981042214221  0.22392606440644
 8 -5.86548231983198 -4.32120112821282  1.30965732913291
 8 -5.05604530273027 -5.81898309470947 -0.25593873847385
 6 -5.54249181338134 -6.91736358965897  0.63162499229923
 6  2.31510248344834 -5.07072819301930  0.50197415181518
 6  3.23262779777978 -4.10978113901390  0.88426632643264
 6  4.02545193539354 -3.25265813591359  0.11365500050005
 6  3.69263360226023 -3.10177511881188 -1.33810331483148
 6  5.15635206100610 -2.39164421202120  0.67035083388339
 6  6.51581645294529 -2.74866779197920  0.04980644804480
 6  7.57967329092909 -1.77367672317232  0.60286597709771
 6  9.09772059335934 -1.99916475007501 -0.02559034153415
 6  9.52019840154015 -3.37920856125613  0.21948849114911
 6  9.95905648474847 -0.80249048644865  0.41302381788179
 6  11.34043134553455 -0.80997060396040 -0.37567633383338
 6  12.14056174477448  0.39093372087209  0.16682352995300
 6  13.53256571237124  0.56657152705271 -0.61012577577758
 6  14.39179747874788 -0.66634603720372 -0.43753790469047
 6  14.21890783038304  1.81044721632163 -0.07106636143614
 6  15.42952714311431  2.22911093929393 -0.98516351135114
 6  15.97456004040404  3.59019377217722 -0.66576718991899
 6  17.36423167226723  3.93059090069007 -1.23164709990999
 6  17.14657724742474  4.12544743644364 -2.82525474967497
 6  17.91655106120612  5.21179644494450 -0.62565202410241
 1 -2.44589031183118  1.08931320672067  3.47347781618162
 1 -6.33755173397340  5.58840422082208  0.49351834353435
 1 -8.81052145934594  1.07765806870687 -2.99680515931593
 1 -3.77216828162816 -3.31511682708271  2.07972603340334
 1 -1.79397652155216 -1.11982964456446  2.65916719281928
 1 -3.03061284038404 -2.79856301750175  4.00213375737574
 1 -3.29967075977598 -1.21370127452745  4.80468249804981
 1 -4.48922143384338 -2.03325240614061  4.08839278977898
 1 -2.20741605530553 -3.09071858915892 -0.46040666446645
 1 -1.52263009540954 -1.74627374367437  0.39355747734773
 1 -0.68627406090609 -3.06272756835684  2.16359057775778
 1 -1.66851157275728 -4.46382351355135  1.86222802080208
 1 -1.72282239603960  3.53870339473947  4.23108901860186
 1 -2.84693568366837  4.82533973997400  4.54588084578458
 1 -3.08565156015602  3.39954095159516  5.25270027602760
 1 -5.19823288718872  6.62780697509751  2.26163148454845
 1 -10.19180831433143  3.18094875197520 -3.08315156685669
 1 -9.72357315521552  4.92800664476448 -2.90978126882688
 1 -9.74253405320532  4.33711212521252 -5.38585378767877
 1 -8.01374088348835  4.67937768316832 -4.70889084408441
 1 -8.51381123012301  2.84375373417342 -4.89232915771577
 1 -8.14206179577958 -1.15430597349735 -4.84126512481248
 1 -8.50773175617562 -2.58677208230823 -3.87480011701170
 1 -9.57628770827083 -1.38660548394840 -3.60989789648965
 1 -4.08393575097510 -3.88922374897490 -1.29599288618862
 1  2.43542467546755 -5.98511645464546  0.89415537243724
 1  2.00568131153115 -5.18353532963296 -0.55579902950295
 1  3.53716583888389 -4.12815209700970  1.94636964456446
 1  2.63594858155816 -3.32994861596160 -1.75540808180818
 1  3.93342795609561 -2.03430698999900 -1.74768723922392
 1  4.33975614961496 -3.58117184638464 -1.92183110901090
 1  4.95199524042404 -1.25940236423642  0.47618950245025
 1  5.18358688598860 -2.65826745914591  1.71423630393039
 1  6.70771829852985 -3.84599779187919  0.26378426242624
 1  6.30221038143814 -2.78204581358136 -1.12795339083908
 1  7.50734966626663 -0.67176050115012  0.48615586108611
 1  7.86258836173617 -1.99426600970097  1.59973435873587
 1  8.77796190549055 -2.00935921112111 -1.21083442154215
 1  8.68235275397540 -4.10217898929893  0.06658286588659
 1  10.44109345014501 -3.83410761286129 -0.27405751925193
 1  9.96653571497150 -3.67175826732673  1.22476291899190
 1  9.62164131473147  0.17568329452945  0.34692005580558
 1  10.23562365986599 -1.08602513641364  1.29782932293229
 1  11.73744888618862 -1.77847787968797 -0.20656502970297
 1  11.11299738643864 -0.71059396429643 -1.40214154775478
 1  11.63354438793879  1.33409783898390 -0.30754030923092
 1  12.42748757205720  0.49586077747775  1.18957723792379
 1  13.24548134883488  0.74593902620262 -1.65957819651965
 1  14.11949128742874 -1.20711892459246  0.73762944294429
 1  13.85142071307131 -1.76594561086109 -0.75742206370637
 1  15.53513450185019 -0.76334953315332 -0.54517140964096
 1  13.76962515671567  2.66663128222822  0.03991220352035
 1  14.65375207550755  1.70521081028103  1.10311752565257
 1  16.26232788858886  1.34850346304630 -0.73061955265527
 1  14.76474205760576  2.33988790159016 -1.92703408310831
 1  15.38831023562356  4.43631900990099 -0.96528852695270
 1  16.03827659775978  3.72222886428643  0.31982188258826
 1  18.02275595699570  3.09189068026803 -1.09561864146415
 1  16.35420614101410  4.62814934383438 -3.01153351315132
 1  17.95684160766077  4.47531704500450 -3.26819142424242
 1  16.92728292849285  3.17297836783678 -3.28912694729473
 1  18.08490453765376  5.36366758425843  0.51705336953695
 1  18.86268379067907  5.46853100530053 -1.05579249364937
 1  17.28080963186319  6.01393089618962 -0.83855791709171
 1 -5.12530783218322 -7.75471490459046 -0.04672821052105
 1 -6.58641307160716 -6.92126921352135  0.70662416991699
 1 -5.09061723032303 -6.73459503510351  1.65383984058406
 8 -7.74031162276228  6.84582108290829 -0.34929271327133
 1 -9.04968326542654  6.38376402130213 -1.81861754455446

