%nproc=4
%Mem=4GB
# td=(NStates=1) iop(3/107=0140000000,3/108=0140000000) iop(3/107=0140000000,3/108=0140000000) CAM-B3LYP/6-31G(d,p) 

TD

0 1
12 -5.59519102570257  1.22590746504650  0.15089369456946
 6 -4.91357174437444 -2.10213867716772 -0.33729059585959
 6 -3.24829361846185  1.23263354815482  2.70278565186519
 6 -6.18463725942594  4.50743400760076  0.68665887468747
 6 -8.00203597069707  1.21033188388839 -2.41027870137014
 7 -4.28239249254926 -0.23584177597760  1.08820015881588
 6 -4.24126765426543 -1.56999070067007  0.74758710831083
 6 -3.10841396589659 -2.25285858865887  1.51552591629163
 6 -2.86663983498350 -1.27964085498550  2.65873242934293
 6 -3.44812223962396  0.00019739203920  2.14490907610761
 6 -3.56925996539654 -1.66985042644264  4.07994069346935
 6 -2.00063525672567 -2.54669207850785  0.72383768926893
 6 -1.07449909340934 -3.68916649724973  1.43157674567457
 6  0.23387848834883 -3.92934677537754  0.72182037673767
 8  0.48883894819482 -3.50383769736974 -0.40801703590359
 8  1.06819366506651 -4.83111272857286  1.39498410571057
 7 -4.87492830913091  2.57901727862786  1.45858609030903
 6 -3.89750183998400  2.46572399409941  2.46861746504650
 6 -3.77774727842784  3.73800230243024  3.12481303750375
 6 -4.63809436213621  4.67669919821982  2.58482775407541
 6 -5.26387249144914  3.93039113431343  1.46518261056106
 6 -2.71578694179418  3.88922629842984  4.23567775717572
 6 -4.70387691829183  6.01517893839384  2.84628413321332
 8 -4.19328937693769  6.52846073407341  3.82470637053705
 7 -6.91515531543154  2.64627452325233 -0.67726938323832
 6 -7.02728544334433  3.98907852505251 -0.37976966566657
 6 -7.85416060246025  4.62925965076508 -1.22916702620262
 6 -8.43854330763076  3.63577050695069 -2.09210815521552
 6 -7.88814770527053  2.39248525732573 -1.71540748724872
 6 -8.28402139303931  6.03007291669167 -1.15404491329133
 6 -9.37392175547555  3.85039543774377 -3.29357399019902
 6 -8.58694014771477  4.26915506170617 -4.60348675267527
 7 -6.28759717871787 -0.07891290899090 -1.11317640964096
 6 -7.23453298289829 -0.00736680528053 -2.10631484218422
 6 -7.50908841604160 -1.30195189878988 -2.71729425202520
 6 -6.69554910371037 -2.22993256505651 -1.96707287298730
 6 -5.92183059845985 -1.35866943204320 -1.04745087548755
 6 -8.44006946474647 -1.74682480848085 -3.80460735693569
 6 -6.17399106620662 -3.52730831473147 -1.94282783788379
 8 -6.53788818431843 -4.49353705210521 -2.42618888398840
 6 -5.04286284838484 -3.55327337993799 -0.89713203300330
 6 -5.19858733613361 -4.65096053715372  0.22364603640364
 8 -5.50588636023602 -4.40125913401340  1.36864322772277
 8 -5.03153285148515 -5.91246244264426 -0.39443258785879
 6 -5.36448401260126 -7.01648350165016  0.35618744854485
 6  2.28085905910591 -5.16739785998600  0.68041199559956
 6  3.35324985998600 -4.13709387028703  0.86305420522052
 6  4.03691308150815 -3.33502637273727  0.05867950295030
 6  3.65572991189119 -3.22437737903790 -1.47705721022102
 6  5.24925135093509 -2.50324537213721  0.49721352015202
 6  6.52772764406441 -2.89133205840584 -0.03400193279328
 6  7.64845016861686 -1.82490184568457  0.37246293679368
 6  9.00413123442344 -2.09852468606861 -0.20364814731473
 6  9.56999338103810 -3.51744238463846  0.14413095539554
 6  9.95101568066807 -1.06194643204320  0.32025454095410
 6  11.23651095349535 -0.89611921882188 -0.39072783898390
 6  12.22621030963096  0.07503213071307  0.23466031363136
 6  13.50077253305330  0.47721259115912 -0.50258502170217
 6  14.48743704270427 -0.67394679727973 -0.42388653955396
 6  14.04596053565357  1.83171934353435 -0.16938619341934
 6  15.36850104050405  2.17819584778478 -0.99749474447445
 6  15.96259884428443  3.48859361216122 -0.53370398359836
 6  17.18702395149515  3.99727756935694 -1.20381431663166
 6  17.03033562326232  4.13519841154115 -2.71958418261826
 6  17.49322872897289  5.38640390569057 -0.66512597149715
 1 -2.46905262806281  1.12583685908591  3.60491095949595
 1 -6.39994797359736  5.65608098849885  0.58997798949895
 1 -8.61683209040904  1.06660696359636 -3.23921940074007
 1 -3.33890495529553 -3.36187150255026  2.01324938573857
 1 -1.77937506140614 -1.18745640724072  2.87340861696170
 1 -3.15112489158916 -2.58103126432643  4.45670921492149
 1 -3.36484727742774 -0.58433833823382  4.47974000380038
 1 -4.66777928962896 -1.76254533543354  3.91575552605261
 1 -2.38502381608161 -2.82672218951895 -0.29024964876488
 1 -1.36660449284929 -1.74998411471147  0.38319644124413
 1 -0.96586201970197 -3.37052834843484  2.54050826952695
 1 -1.59393411501150 -4.76884401560156  1.35971776977698
 1 -1.68946906070607  3.63822334673467  3.96763267296730
 1 -2.84073506360636  4.86183338933893  4.81938819651965
 1 -3.00302329732973  3.23882487998800  5.12595760176018
 1 -5.32158522242224  6.60731492589259  2.12080740214021
 1 -9.89117825132513  2.92697335443544 -3.41771502320232
 1 -9.94991578947895  4.57480132423242 -2.95284557525753
 1 -9.28887868766877  4.51173958795880 -5.40562576487649
 1 -8.10191970137014  5.20382012741274 -4.59354930993099
 1 -7.88116796579658  3.38817817661766 -4.94730465526553
 1 -8.08029561916192 -1.05272581548155 -4.53879487778778
 1 -8.18996997999800 -2.84791819691969 -4.12386502350235
 1 -9.50358043754376 -1.57021384478448 -3.57887479417942
 1 -4.21249860726073 -3.85005983258326 -1.52033532043204
 1  2.65825695869587 -6.07556549954995  1.06211216811681
 1  2.05046578997900 -5.26868384448445 -0.34564801440144
 1  3.73916603890389 -4.33756303810381  1.97070207780778
 1  2.50874586128613 -3.38605422652265 -1.75624816581658
 1  3.97786239953995 -2.14673823312331 -1.70368283878388
 1  4.22770494449445 -3.83193692289229 -2.11388031393139
 1  4.89116915781578 -1.35606203020302  0.25566745024502
 1  5.08112663996400 -2.42732436483648  1.64103898419842
 1  6.88574610131013 -3.85164835693569  0.29591747574757
 1  6.43885404580458 -3.23109071807181 -1.16268686418642
 1  7.24709364066407 -0.62215554065407 -0.01868462296230
 1  7.55015711861186 -1.73287987108711  1.49786417171717
 1  8.83458756805681 -2.13874214941494 -1.39557289538954
 1  8.79854437313731 -4.34461323272327 -0.26782057445745
 1  10.55033437423742 -3.71679588168817 -0.38096821032103
 1  9.62056111751175 -3.72163325482548  1.09018946164617
 1  9.38163731433143 -0.16140041384138  0.32153751755176
 1  9.99339943744375 -1.33813034693469  1.41171071107111
 1  11.53827896919692 -1.99835986788679 -0.40514488768877
 1  11.14684077077708 -0.48945185008501 -1.43384471807181
 1  11.63698473197320  1.12260668986899  0.34252469726973
 1  12.49708453175317 -0.25415422402240  1.32757103730373
 1  13.25753255395539  0.44669910221022 -1.54587682638264
 1  15.13267260556055 -0.62749096179618  0.66963264326433
 1  14.23361893289329 -1.78856787308731 -0.86987330883088
 1  15.40363135153515 -0.37974117231723 -1.12667956045605
 1  13.34824301850185  2.62400701980198 -0.39463125082508
 1  14.42912961326133  1.84193448264827  0.93009022292229
 1  16.07100875667567  1.31929054175418 -1.09771626232623
 1  15.27077266066607  2.39879379217922 -2.06926830653065
 1  15.01127253185319  4.25271064906491 -0.78515051315131
 1  16.22655542564257  3.44453109450945  0.48330823122312
 1  17.89008268966897  3.21103259445945 -1.08205728532853
 1  16.04851557195719  4.73601012991299 -2.98908126792679
 1  18.01291721522152  4.24204371767177 -3.24625923102310
 1  16.77879808000800  3.12345341534153 -3.28532656725673
 1  17.55146119331933  5.39241045854585  0.63594525872587
 1  18.55724324662467  5.79312346454645 -0.96740365476548
 1  16.77235878677867  6.15447495059506 -0.82827688898890
 1 -5.21414671607161 -7.84034346744675 -0.27604114181418
 1 -6.32612704300430 -7.05336242284228  0.52309581708171
 1 -4.87803597219722 -7.10744231983198  1.35082953955396
 8 -7.73833142474247  6.87987448824882 -0.40803858785879
 1 -9.06074437153715  6.35052069696970 -1.70973665646565

