%nproc=4
%Mem=4GB
# td=(NStates=1) iop(3/107=0140000000,3/108=0140000000) iop(3/107=0140000000,3/108=0140000000) CAM-B3LYP/6-31G(d,p) 

TD

0 1
12 -5.56969847644764  1.25590046434643  0.20927953315332
 6 -5.12489287648765 -2.09647811111111 -0.35779264606461
 6 -3.33793258235824  1.16893717851785  2.74181955525553
 6 -6.10427922362236  4.56988025222522  0.57477768656866
 6 -7.95621138823882  1.14947579827983 -2.39841751525153
 7 -4.45100935423542 -0.33500169196920  1.09230056885689
 6 -4.35746927442744 -1.62493619521952  0.62802515211521
 6 -3.32240536503650 -2.36844014681468  1.48665302900290
 6 -3.08518168916892 -1.38269116001600  2.67985454155416
 6 -3.63365079247925 -0.06989961766177  2.17323190839084
 6 -3.67681072047205 -1.83828727012701  3.96870957035704
 6 -2.04986017921792 -2.62364977427743  0.72430773627363
 6 -1.03029467296730 -3.55213279387939  1.38505209320932
 6  0.19914501500150 -3.95779962066207  0.59346754145415
 8  0.43654371867187 -3.60674798839884 -0.54957119131913
 8  1.07174402010201 -4.67218683598360  1.28724333163316
 7 -4.84345516181618  2.50922029892989  1.46391662336234
 6 -3.90277236703670  2.39065648734873  2.53412401570157
 6 -3.78951845554555  3.62314081628163  3.19432998919892
 6 -4.66982753545355  4.48634016231623  2.65894516581658
 6 -5.24928103230323  3.82865096029603  1.43651974427443
 6 -2.81421678477848  3.81402877867787  4.41218540794079
 6 -4.64408093869387  5.95178259875988  3.01574107890789
 8 -4.08139818781878  6.48516640464046  3.94627852775278
 7 -6.81763556345635  2.60645054085409 -0.68344000030003
 6 -6.83985670047005  3.94597421462146 -0.44122581128113
 6 -7.82029721612161  4.57987471227123 -1.24747885738574
 6 -8.33988344164416  3.62109903980398 -2.09028797319732
 6 -7.69310820132013  2.36909291809181 -1.71331727822782
 6 -8.19340233113311  6.01676158555856 -1.30257976677668
 6 -9.31441580488049  3.72037243544354 -3.10738537133713
 6 -8.72505395909591  4.08469661586159 -4.56668307230723
 7 -6.40220863986399 -0.12753777147715 -1.06678177017702
 6 -7.27932746234623 -0.04269033763376 -2.16082029272927
 6 -7.60152765996600 -1.37294899849985 -2.71918444104410
 6 -6.76485603440344 -2.25609518131813 -1.99079524522452
 6 -6.07561597699770 -1.43559712481248 -1.09177530793079
 6 -8.58551400920092 -1.56934706070607 -3.73333022922292
 6 -6.19034270137014 -3.57684326822682 -1.97305086018602
 8 -6.45781017651765 -4.51922962136214 -2.68325459055906
 6 -5.03625218731873 -3.56680473307331 -0.93265558535854
 6 -5.32425990339034 -4.60237567866787  0.13073674547455
 8 -5.87662343394339 -4.34970397849785  1.19402576597660
 8 -5.06571626982698 -5.84426562296230 -0.27264040864086
 6 -5.31958952315232 -6.87556941024102  0.71372320212021
 6  2.25303627682768 -5.06849796999700  0.70667462186219
 6  3.41553608860886 -4.08264842574257  0.99955785558556
 6  3.96157554775478 -3.29715258535854  0.06937057205721
 6  3.68336267516752 -3.12270721202120 -1.37637714221422
 6  5.11414784058406 -2.32891793939394  0.53440723952395
 6  6.50719559085909 -2.53028595379538 -0.20622915551555
 6  7.57058238183818 -1.68183753925393  0.44649033953395
 6  8.94638545984598 -2.00080491409141 -0.14625240774077
 6  9.54047042874287 -3.35738637903790 -0.04361781948195
 6  9.90672125122512 -1.00512074947495  0.48963147864786
 6  11.30331763416342 -0.80329993689369 -0.27045581178118
 6  12.30744843344334  0.31241586908691  0.25151199879988
 6  13.61963441924192  0.55398026792679 -0.53463822702270
 6  14.66884518351835 -0.61347074967497 -0.23419757065707
 6  14.22110805040504  1.90897706930693 -0.18963821862186
 6  15.48975316571657  2.19498752695270 -0.89980497549755
 6  16.09614219861986  3.54796954975498 -0.64871548474847
 6  17.49927517661766  3.82854069566957 -1.37786172137214
 6  17.29631222092209  3.85802069376938 -2.90561278547855
 6  17.95285469156915  5.26720198549855 -0.75807526642664
 1 -2.78696441924192  1.21798607400740  3.73200366876688
 1 -6.24370234903490  5.65387076747675  0.96577556925693
 1 -8.59547995519552  1.16660696359636 -3.03176865566557
 1 -3.83732479727973 -3.20535585098510  1.67268532933293
 1 -2.01597872177218 -1.14111177277728  2.83958523462346
 1 -3.22986276537654 -2.86160932213221  4.27865140914091
 1 -3.31010180288029 -1.36472637703770  4.83643567336734
 1 -4.79467197889789 -2.00615969686969  3.65098904940494
 1 -2.38494380808081 -3.16894641194119 -0.19087971177118
 1 -1.62785061746175 -1.83117223352335  0.31466958855886
 1 -0.73920935443544 -3.11152244784478  2.35538975767577
 1 -1.32874759635964 -4.63407053825383  1.78555035303530
 1 -1.87488760256026  3.22541206560656  4.01978788848885
 1 -2.48660965106511  4.89227643364336  4.34558081578158
 1 -3.36362935793579  3.54215521302130  5.24929993599360
 1 -5.31930499439944  6.86401059545955  2.54176949834983
 1 -10.09993912741274  2.82785344244424 -3.23156640834083
 1 -9.97099789768977  4.63871771587159 -2.82173246394639
 1 -9.58397819761976  4.05080349434944 -5.20890609290929
 1 -8.33225273467347  4.99905965136514 -4.60630058505851
 1 -7.82167201620162  3.37919727852785 -4.77596752155216
 1 -8.43604119371937 -1.13703424632463 -4.66516751505150
 1 -8.82028301130113 -2.66005941104110 -4.04106674367437
 1 -9.51108118761876 -1.33105992939294 -3.26994390109011
 1 -4.03297065446545 -3.66505133173317 -1.53254654155416
 1  2.54426555955596 -6.03661160416042  1.36516247314731
 1  1.95624636803680 -5.27263423952395 -0.43670712031203
 1  3.75457758005801 -4.18033731553155  1.93061806940694
 1  2.82063705040504 -3.67040266136614 -1.74433697469747
 1  3.53675828912891 -2.00706426572657 -1.56092856335634
 1  4.53165533953395 -3.48240196939694 -2.09947887378738
 1  4.62504254515452 -1.45179160316032  0.32741462496250
 1  5.13974250155016 -2.35731736413641  1.57386226652665
 1  6.88140566726673 -3.59105229732973 -0.15836795279528
 1  6.54231439183918 -2.39261687068707 -1.27875847134713
 1  7.31037996929693 -0.74783810891089  0.44346159165917
 1  7.65732783568357 -1.96396297939794  1.51133551885188
 1  9.01118522782278 -1.87995627082708 -1.22745608370837
 1  8.95377989668967 -4.03057182858286 -0.41937572997300
 1  10.56580592139214 -3.68422262436244 -0.54508462196220
 1  9.98860792219222 -3.69720081158116  1.07079752245225
 1  9.41794094469447 -0.11287556135614  0.72597796159616
 1  10.22160225772577 -1.22814934883488  1.42250179017902
 1  11.85882102340234 -1.74370440234023 -0.09738411161116
 1  11.15373145984598 -0.40445335023502 -1.29071040464046
 1  11.63656468996900  1.16989141834183  0.08908935373537
 1  12.53383820712071  0.08499969136914  1.21005928612861
 1  13.29193599429943  0.57192162446245 -1.68527076577658
 1  14.75872521082108 -0.69199741244124  0.94774045404540
 1  14.02383795479548 -1.45086410271027 -0.56679300080008
 1  15.61843283168317 -0.67025022322232 -0.56589348184818
 1  13.33252144634463  2.61603622272227 -0.38759054675467
 1  14.38120482078208  1.98256854605461  0.84703191709171
 1  15.98350000580058  1.41236984968497 -0.52641913261326
 1  15.16562214561456  2.08063197599760 -2.16755813551355
 1  15.43587499209921  4.51114649264926 -0.96462846094609
 1  16.23814658475848  3.69439608100810  0.46200610101010
 1  18.45525920732073  3.23234472567257 -1.17818689828983
 1  16.50515123552355  4.55263179207921 -3.60264262406241
 1  18.20947687118712  3.98323783708371 -3.44808941404140
 1  16.87435763596360  2.90190126012601 -3.16143417801780
 1  18.05537158435844  5.12385360286029  0.36234789898990
 1  18.80059758205821  5.63223737593759 -1.17724463886389
 1  17.13725527642764  5.95668517161716 -0.88728278957896
 1 -4.69167446884688 -7.76490592369237  0.20441690399040
 1 -6.36521095139514 -6.91574866146615  0.59788329582958
 1 -5.07466563516352 -6.49101067666767  1.82153661026103
 8 -7.73487107870787  6.94538103890389 -0.52945072907291
 1 -8.91832012911291  6.43568921382138 -1.98862454525453

