%nproc=4
%Mem=4GB
# td=(NStates=1) iop(3/107=0140000000,3/108=0140000000) iop(3/107=0140000000,3/108=0140000000) CAM-B3LYP/6-31G(d,p) 

TD

0 1
12 -5.61903340994099  1.22196707100710  0.22463106830683
 6 -5.00550093729373 -2.17120558385839 -0.33416028282828
 6 -3.47035582468247  1.19261954675468  2.72616799009901
 6 -6.21658045374537  4.58007127132713  0.64464467326733
 6 -8.06862262936294  1.20388123882388 -2.31927960146015
 7 -4.31791604490449 -0.26732492429243  1.05331667046705
 6 -4.27375090259026 -1.62119582118212  0.66564891449145
 6 -3.17790091459146 -2.28490179297930  1.48936330003000
 6 -2.99267243824382 -1.31466435733573  2.58010456655666
 6 -3.56974440184018 -0.02048467616762  2.11225581078108
 6 -3.42429546894689 -1.67177061846185  3.96842954235424
 6 -1.95482067526753 -2.68380578987899  0.69877518301830
 6 -0.93847549104910 -3.51864944554455  1.51015460346035
 6  0.22104720522052 -3.96122996369637  0.53512170687069
 8  0.39861992629263 -3.50241755535554 -0.53122935713571
 8  1.05626247194719 -4.72896251355136  1.16790139743974
 7 -4.89012982928293  2.63256263316332  1.39722995469547
 6 -4.05583767356736  2.42975039673967  2.46488709200920
 6 -3.79286879057906  3.52232073427343  3.23237379357936
 6 -4.61366191889189  4.53307483578358  2.71320059135914
 6 -5.27599370357036  4.02548064326433  1.54382047434743
 6 -2.89354471757176  3.77844522032203  4.40719490889089
 6 -4.81264779537954  5.95181260176018  3.09345885068507
 8 -4.08739878787879  6.59704759275928  3.94580848074807
 7 -6.98046184608461  2.50255015081508 -0.66679833613361
 6 -6.91847456225623  3.92178179537954 -0.33252494119412
 6 -7.76629181558156  4.65260198499850 -1.33074718421842
 6 -8.35131458475847  3.68359528942894 -2.23245218961896
 6 -7.76803569406941  2.39622563136314 -1.78851479797980
 6 -8.14776776767677  6.04396430583058 -1.35532504130413
 6 -9.33673803710371  3.86971736993699 -3.30462509530953
 6 -8.70476192989299  4.11396954315432 -4.64746115011501
 7 -6.42514093309331 -0.09822484018402 -0.97097218921892
 6 -7.43319284888489 -0.02982905150515 -1.98313252395240
 6 -7.61709921712171 -1.29743144674467 -2.60435295789579
 6 -6.66977652645265 -2.11878144994499 -2.01235740144014
 6 -5.96847526292629 -1.39347291239124 -1.07627375777578
 6 -8.58767422522252 -1.73038316431643 -3.62686958315832
 6 -6.17257092419242 -3.48876446034603 -1.91111466656666
 8 -6.58750314581458 -4.46594429282928 -2.55459172427243
 6 -4.95490405250525 -3.53762181478148 -0.87345966576658
 6 -5.24636211361136 -4.63751919301930  0.07899157095710
 8 -5.69155492709271 -4.51885089318932  1.22743910731073
 8 -5.03291298949895 -5.86914811121112 -0.41330447504750
 6 -5.22065963016302 -6.98758061136114  0.42285411521152
 6  2.36650762396240 -5.14470559075908  0.54132808720872
 6  3.34052858785879 -4.18825898679868  0.86738463826383
 6  4.05468485868587 -3.37708057815782  0.17893152815282
 6  3.78133247214721 -3.21594653595360 -1.36576608110811
 6  5.15933235903590 -2.41347639523952  0.68991279007901
 6  6.59490436173617 -2.68124104930493  0.08415988338834
 6  7.64617994159416 -1.70517987348735  0.60102579307931
 6  9.03755457675768 -2.01554638823882  0.02646486398640
 6  9.52934931663166 -3.37854849524952  0.31322786508651
 6  9.95163574267427 -0.87988822622262  0.44121663716372
 6  11.34618192059206 -0.85840544744474 -0.32612137833783
 6  12.22238992759276  0.24123875137514  0.12913976157616
 6  13.44112656845684  0.53050792069207 -0.81538630183018
 6  14.43764206320632 -0.66340574317432 -0.66150030093009
 6  14.19730567016702  1.84656082768277 -0.14975423022302
 6  15.37931212161216  2.19945797399740 -0.93674866986699
 6  15.82814539893989  3.57875262806281 -0.64686529972997
 6  17.25734098319832  3.87862570417042 -1.22840677587759
 6  17.23279586928693  3.78182307400740 -2.71117334153415
 6  17.93708311441144  5.19077434273427 -0.78864832373237
 1 -2.83358908170817  1.17955223062306  3.64711517991799
 1 -6.36591457025703  5.64268964936494  0.61592058375838
 1 -8.77342774997500  1.05606590949095 -3.17556303510351
 1 -3.73467453225323 -3.19502481788179  1.74587264806481
 1 -1.92342946684668 -1.27262492409241  2.33388466456646
 1 -2.85366514561456 -2.54567772897290  4.31656520052005
 1 -3.14221501420142 -0.96839674407441  4.58512054185419
 1 -4.56229874157416 -2.06967604850485  4.10647459795980
 1 -2.00715602930293 -3.27761727902790 -0.16228685248525
 1 -1.36796462886289 -1.82026114241424  0.38713683528353
 1 -0.60350578407841 -2.91246254185419  2.29341356005601
 1 -1.28989371097110 -4.37882501370137  1.95378717671767
 1 -1.77174728852885  3.80028955335534  3.98369427912791
 1 -3.14461545164516  4.79970717671767  4.93194945264526
 1 -2.88282127712771  2.91847284478448  5.20765577157716
 1 -5.68390145404540  6.48180237463746  2.54720004140414
 1 -9.80780991449145  2.87212786988699 -3.37811106280628
 1 -10.17857865576558  4.63587743184318 -2.97327761846185
 1 -9.58423822362236  4.15471388538854 -5.42138734103410
 1 -8.17381689108911  5.12413215861586 -4.49545950095009
 1 -8.04545439443944  3.27112647144714 -4.63494341914191
 1 -8.51785937553755 -1.07485802870287 -4.56964796309631
 1 -8.35060604360436 -2.78583198829883 -3.67439007600760
 1 -9.60607068656866 -1.65880270367037 -3.32406931363136
 1 -4.09722708010801 -3.60421524812481 -1.57910119701970
 1  2.48785991899190 -6.27346528952895  0.84102005890589
 1  2.13196393979398 -4.79295627172717 -0.50246369596960
 1  3.97832995529553 -4.16984626642664  2.05958096569657
 1  2.81966695339534 -3.51398701980198 -1.54708724972497
 1  3.76427104040404 -2.25023858315832 -1.65272774327433
 1  4.44969714371437 -3.95339906910691 -1.89624855075508
 1  4.81705174607461 -1.36797322132213  0.51739362286229
 1  5.18614714201420 -2.47749938233823  1.82230711101110
 1  6.90749827652765 -3.67604079617962  0.31008889288929
 1  6.52703286368637 -2.38438604760476 -0.87594819031903
 1  7.47104603590359 -0.66306963206321  0.31077832333233
 1  7.79015111801180 -1.71470805390539  1.75486987228723
 1  8.96686079537954 -1.86982525772577 -1.07316065416542
 1  8.98642316101610 -4.12947171857186 -0.18469226162616
 1  10.32042138293829 -3.51221542364236 -0.17611772527253
 1  9.71574063546355 -3.51522261376138  1.48624906760676
 1  9.42885203580358 -0.02486676047605  0.33557892169217
 1  10.16191628912891 -0.90124665856586  1.42648218821882
 1  11.70464560586059 -1.91432146404640 -0.34993936713671
 1  11.13368945564556 -0.68971187608761 -1.47416875047505
 1  11.85610664416442  1.35899032823282  0.22764320912091
 1  12.60045486878688 -0.09699850845084  1.29293757395740
 1  13.22032883358336  0.83293772607261 -1.77505974467447
 1  14.67847718601860 -0.79073728642864  0.34156983698370
 1  13.93589916091609 -1.57734675097510 -0.98932525402540
 1  15.33471445984599 -0.54722792099210 -1.00121701420142
 1  13.58523671787179  2.58417303640364 -0.18746053375338
 1  14.56124282458246  1.82745303450345  0.84861207510751
 1  16.16966862266226  1.36988560126013 -0.80829732043204
 1  15.19961554495450  2.33565747854785 -2.01399277897790
 1  15.13660506510651  4.37869324732473 -1.04830682878288
 1  15.82894566466647  3.80840748214822  0.54648454885489
 1  18.06140982238224  3.02571406260626 -1.05552463206321
 1  16.66934765516552  4.59939646854686 -3.22866522632263
 1  18.25438136163616  3.83453296659666 -3.25566017111711
 1  16.82046224642464  2.79502057205721 -3.05909394399440
 1  18.26560260746075  5.18609982748275  0.24854651885189
 1  18.85741326362636  5.32857700990099 -1.44043095749575
 1  17.19303085398540  5.97713721682168 -0.72195625692569
 1 -5.07686298769877 -7.92011144424442 -0.01834537223722
 1 -6.41389581988199 -7.01011809840984  0.75141864936494
 1 -4.43025119371937 -6.98453002860286  1.29896435303530
 8 -7.59347693929393  6.85653215401540 -0.60657844184418
 1 -8.91187948504851  6.31906755165517 -1.91772745554555

