%nproc=4
%Mem=4GB
# td=(NStates=1) iop(3/107=0140000000,3/108=0140000000) iop(3/107=0140000000,3/108=0140000000) CAM-B3LYP/6-31G(d,p) 

TD

0 1
12 -5.57095860246025  1.26108098239824  0.15924452965297
 6 -4.85609599679968 -2.09202766606661 -0.41397826462646
 6 -3.46947573667367  1.17069735453545  2.81722709600960
 6 -6.17022581828183  4.64649791399140  0.57338754755476
 6 -7.93423919101910  1.15386623732373 -2.38352602610261
 7 -4.35290954425443 -0.25475366716672  1.04611595039504
 6 -4.19000252775278 -1.59178287988799  0.65834818441844
 6 -3.20188331283128 -2.35130843364336  1.44907927162716
 6 -2.87009018001800 -1.27760065096510  2.61896845294529
 6 -3.63547097449745 -0.07561018871887  2.15149973517352
 6 -3.52212525192519 -1.81336477787779  3.93043574297430
 6 -1.89401459465947 -2.73377078637864  0.67856316181618
 6 -1.03339498299830 -3.53592117271727  1.44146773477348
 6  0.25677077757776 -3.92466630733073  0.77332552725273
 8  0.47854791909191 -3.62831014461446 -0.40506674087409
 8  1.06339318501850 -4.70043966126613  1.51827643494349
 7 -5.04545536183618  2.66878625552555  1.42541277297730
 6 -4.03458554835484  2.43194061576158  2.40288089138914
 6 -3.76074557825783  3.62292079427943  3.12198275447545
 6 -4.61329188188819  4.61415294359436  2.48447771907191
 6 -5.28534463866387  3.99591768696870  1.51677777007701
 6 -2.73633899699970  3.92917029282928  4.18453264266427
 6 -4.45818234883488  6.01203862436244  2.87206671147115
 8 -3.93326337433743  6.57052494049405  3.74190809070907
 7 -6.80911471137114  2.69475937173717 -0.81231288758876
 6 -6.95024773957396  4.02249186638664 -0.43167485618562
 6 -8.06648183458346  4.59997672247225 -1.13282739223922
 6 -8.62820227352735  3.61143807370737 -1.99647859225923
 6 -7.74615350585059  2.38251426022602 -1.72471841834183
 6 -8.49237222812281  6.03080298969897 -0.98656816561656
 6 -9.62645700900090  3.76799719791979 -2.97745237803780
 6 -8.99829128282828  4.13126127232723 -4.41455785978598
 7 -6.28680709970997 -0.18808382608261 -1.05790088208821
 6 -7.20824035363536 -0.09747581618162 -2.11072528322832
 6 -7.43158066526653 -1.33438514211421 -2.71584410701070
 6 -6.53507305610561 -2.14965453725373 -2.14320048574857
 6 -5.87135555095510 -1.38208177327733 -1.11533766416642
 6 -8.53875933373337 -1.44953507950795 -3.72924982118212
 6 -6.06371003810381 -3.40663624752475 -2.20307386248625
 8 -6.26599099459946 -4.38872657105711 -2.76066233133313
 6 -5.06493505560556 -3.53012106470647 -0.96442876267627
 6 -5.27264474187419 -4.56787222832283  0.01959563136314
 8 -5.72012778437844 -4.40441945004500  1.14836119951995
 8 -5.05996569476948 -5.82380357675768 -0.51623476807681
 6 -5.37270483468347 -6.94263611691169  0.39712154195420
 6  2.27472844604460 -5.10418153835384  0.83659761416142
 6  3.46086062106211 -4.12676283718372  1.12506040584058
 6  4.03001239143914 -3.36842971307131  0.17283091809181
 6  3.70266460536054 -3.17337227852785 -1.28620812531253
 6  5.16212263806381 -2.46832187978798  0.70920471927193
 6  6.53899877117712 -2.78507143234323  0.07695916331633
 6  7.68078340194019 -1.90580993649365  0.60374606510651
 6  9.08598942024202 -2.03780861446145 -0.03947172967297
 6  9.60936731843184 -3.47271791219122  0.04214075637564
 6  10.09798037713771 -1.00822105950595  0.44912742824282
 6  11.40347765016502 -0.87508711561156 -0.41393015921592
 6  12.28222591119112  0.22779740724072  0.27165401300130
 6  13.59485194099410  0.48951382128213 -0.47994275747575
 6  14.51001930093009 -0.74509391199120 -0.33115726662666
 6  14.20396633623362  1.80259643124312 -0.02622187698770
 6  15.41199538993899  2.10658868706871 -0.89344433943394
 6  15.89325190959096  3.59125387818782 -0.69544015721572
 6  17.12633788288829  3.90492833443344 -1.42725666086609
 6  16.97623021272127  4.01027591929193 -3.00507273147315
 6  17.83979338543854  5.16479174447445 -0.94993445234523
 1 -2.68274399719972  1.06932120752075  3.43943441184118
 1 -6.25978395719572  5.67992337273727  0.89169816151615
 1 -8.62486289348935  1.05099540244024 -3.20095557435744
 1 -3.71708277307731 -3.23696901230123  1.71503956475648
 1 -1.82122924682468 -1.33135079667967  2.59439071517152
 1 -2.85950572967297 -2.79130229142914  4.35071861586159
 1 -3.57933872657266 -0.98210811521152  4.78827085688569
 1 -4.50383289498950 -2.15258433933393  3.91154510501050
 1 -2.18900421412141 -3.30483000030003 -0.21122174597460
 1 -1.30753858625863 -1.87440655695570  0.53992211381138
 1 -0.48574400790079 -2.99906120172017  2.30908512721272
 1 -1.24431915351535 -4.58301543274327  1.81837363536354
 1 -1.79968008180818  3.30226975137514  3.85741165086509
 1 -2.68971996209621  4.91227843384338  4.35241149884988
 1 -3.07593058805881  3.51728272577258  5.17007201320132
 1 -5.14667773167317  6.60140433483348  2.21692701410141
 1 -10.42556168966897  2.97763842094209 -3.04658791049105
 1 -10.29432022992299  4.59352319641964 -2.79241953265327
 1 -9.66910671047105  4.29382779677968 -5.18602380468047
 1 -8.32320182958296  4.95235498089809 -4.45379533453345
 1 -8.26146599559956  3.37172653145314 -4.81308123292329
 1 -8.24288187778778 -0.90270081298130 -4.63779477777778
 1 -8.49776075907591 -2.48993239833983 -4.13209584658466
 1 -9.62180225972597 -1.39626645004501 -3.28043495019502
 1 -4.04279163656366 -3.84317914451445 -1.30217350425042
 1  2.70066119911991 -5.79494743774378  1.54156011291129
 1  2.16549729312931 -5.39231620772077 -0.18977242684268
 1  3.60506262856286 -4.10294957675768  2.09874488208821
 1  2.59433442014201 -3.56883250435044 -1.55777831883188
 1  3.98684329762976 -2.15390895019502 -1.60658312881288
 1  4.40810298429843 -3.87419114831483 -1.62851177707771
 1  4.98845888678868 -1.49911633563356  0.68957084058406
 1  5.38854738203820 -2.72986461886189  1.79166404670467
 1  6.87668519521952 -3.91972516461646  0.23932181618162
 1  6.52539269966997 -2.52787039603960 -1.09189978547855
 1  7.31743067436744 -0.80747407250725  0.50007725322532
 1  7.99830193309331 -2.06301288438844  1.76250063536354
 1  8.92119622892289 -1.86365464066407 -1.18221155925593
 1  8.97192171087109 -4.15089386078608 -0.39610340274027
 1  10.57162650345035 -3.55462966506651 -0.20023013651365
 1  9.80152921432143 -3.65271636313631  1.08298874157416
 1  9.47850700130013 -0.03174744854485  0.49230459425943
 1  10.32915301280128 -1.36970350425043  1.40011955195520
 1  11.63659880118012 -1.98432846474647 -0.31864623782378
 1  11.18202428912891 -0.53272617751775 -1.38991032463246
 1  11.26791782528253  1.01791622082208  0.44680512531253
 1  12.50037486078608 -0.18033684228423  1.32360064026403
 1  13.24570137083708  0.43415784808481 -1.47505974467447
 1  14.70034937323732 -0.87889610231023  0.73456913691369
 1  14.13314888588859 -1.66260527682768 -0.60928725022502
 1  15.49691067946795 -0.55633883208321 -0.63793068556856
 1  13.48440663486349  2.62461708080808 -0.22434422212221
 1  14.49514621492149  1.87183747294729  1.15325253915392
 1  16.20774243004301  1.35510412311231 -0.57953444414441
 1  14.84473005640564  2.09585349814982 -1.89806118581858
 1  15.09750115471547  4.33586896489649 -1.04943694179418
 1  16.16378914901490  3.86724336573657  0.46435633603360
 1  18.11244492589259  3.24178566976698 -1.20302938253825
 1  16.05438615901590  4.67949447834784 -3.27261962176218
 1  17.99800572407241  4.55858537183718 -3.40656526162616
 1  16.78012821302130  2.91810288028803 -3.43157119171917
 1  18.06504255145514  5.03539475697570  0.05100676487649
 1  18.73591111341134  5.48759291149115 -1.36692360676068
 1  17.13308485938594  5.97306680978098 -1.34857891919192
 1 -4.77014231563156 -7.79355878897890 -0.05772931063106
 1 -6.60432486278628 -7.07589467606761  0.16864037153715
 1 -5.08252642124212 -6.59956153175318  1.45449990659066
 8 -8.07709530113011  6.82148864966497 -0.24898268226823
 1 -9.45247354445445  6.24197984288429 -1.74031971477148

