%nproc=4
%Mem=4GB
# td=(NStates=1) iop(3/107=0140000000,3/108=0140000000) iop(3/107=0140000000,3/108=0140000000) CAM-B3LYP/6-31G(d,p) 

TD

0 1
12 -5.58028953555355  1.24287916221622  0.05655426062606
 6 -5.10356074327433 -2.12947141044104 -0.34138100490049
 6 -3.45500428952895  1.06805709050905  2.77370274357436
 6 -6.06190498619862  4.57531079527953  0.69110931973197
 6 -7.92803857095710  1.23610446114611 -2.44064173767377
 7 -4.23914816811681 -0.25967415921592  1.07852919171917
 6 -4.25583911141114 -1.55047874947495  0.64102645224522
 6 -3.26975009950995 -2.40978428122812  1.42386675037504
 6 -2.93304647564756 -1.42389528042804  2.66805336143614
 6 -3.51355878327833 -0.14007663536354  2.12478706390639
 6 -3.46109914931493 -1.96871031243124  3.96500920032003
 6 -2.00393558675868 -2.71588899819982  0.59072437793779
 6 -0.98966060956096 -3.59511709230923  1.28530211821182
 6  0.22728782928293 -3.98364220492049  0.47913610831083
 8  0.31912197649765 -3.62461977557756 -0.66840307450745
 8  1.15237208290829 -4.72821243854385  1.18975358265827
 7 -4.87882869916992  2.51286066296630  1.46656688838884
 6 -4.05605769556956  2.30266768846885  2.50061066436644
 6 -3.71941144484448  3.53195169736974  3.24148470467047
 6 -4.54649520222022  4.45810733903390  2.57214648594860
 6 -5.24426053025303  3.93046114131413  1.51775786808681
 6 -2.86735209830983  3.66786416221622  4.35460965036504
 6 -4.61397792839284  5.94965238573857  2.88912841764176
 8 -3.95743579157916  6.58652654065406  3.77438133803380
 7 -6.76500029992999  2.62254215001500 -0.79593124942494
 6 -6.82221493629363  3.91388100530053 -0.45902759145915
 6 -7.79311449784978  4.59843656845685 -1.25221933143314
 6 -8.38737819111911  3.67211414131413 -2.05943488788879
 6 -7.66700559105911  2.45097110591059 -1.83678962546255
 6 -8.12956594749475  6.07042695209521 -1.10077958675868
 6 -9.34274863816382  3.88776917511751 -3.23266789958996
 6 -8.41690314401440  4.08339648584858 -4.53401980598060
 7 -6.31773019201920 -0.10191520922092 -1.17868296029603
 6 -7.29710924052405  0.01926585798580 -2.18648285898590
 6 -7.65545305250525 -1.25376708030803 -2.64025654825483
 6 -6.81068061686169 -2.18502807460746 -2.05772193789379
 6 -6.03836225162516 -1.45241880698070 -1.16228235863586
 6 -8.63793925172517 -1.48678880488049 -3.71869876607661
 6 -6.40143381048105 -3.60108569246925 -1.98573212831283
 8 -6.80967536303630 -4.54977267566757 -2.47045331043104
 6 -5.14107266936694 -3.55035308790879 -0.83547586738674
 6 -5.34417189458946 -4.65283072417242  0.26853052485248
 8 -5.74735050665066 -4.42004101220122  1.34862122552255
 8 -5.21113081128113 -5.92543373977398 -0.19033217781778
 6 -5.45009257345735 -6.94620647394739  0.80762259205921
 6  2.37132810601060 -5.12591371157116  0.44175813021302
 6  3.46501103610361 -4.09582974387439  1.00736863666367
 6  4.07997738793879 -3.16705957605761  0.22405604060406
 6  3.71021536043604 -2.97146208750875 -1.26937644214421
 6  5.22192861866187 -2.30455550315032  0.77288108690869
 6  6.53398827012701 -2.65237816301630  0.07713918131813
 6  7.65700102370237 -1.78617797329733  0.60568625912591
 6  9.01009183048305 -1.93176801040104 -0.06812459495950
 6  9.58592497419742 -3.32971361176118  0.28415495779578
 6  9.87722830193019 -0.88585882328233  0.47550006550655
 6  11.31008831123112 -0.70127973487349 -0.27974674087409
 6  12.14283197179718  0.42366699419942  0.26917376497650
 6  13.57069952575258  0.40974584448445 -0.59735449864987
 6  14.47381568056806 -0.80035943854385 -0.42103625452545
 6  14.24603054265427  1.72961913351335 -0.17760701550155
 6  15.49712390279028  2.11931996019602 -1.09116411141114
 6  15.98973155755576  3.57240199299930 -0.68247886108611
 6  17.28993424252425  4.05096293789379 -1.37310124532453
 6  17.08078066776677  4.19873476517652 -2.86455868006801
 6  17.78601800790079  5.30233549884989 -0.68496795569557
 1 -2.84825054785479  1.06372064746475  3.71259172757276
 1 -6.35483346214621  5.60365574597460  0.84517350905091
 1 -8.73524393159316  1.32205250815081 -3.28390386918692
 1 -3.65139620442044 -3.22571788718872  1.67582564336434
 1 -1.94782190609061 -1.36716437803780  2.72034331043104
 1 -2.85888566766677 -2.75127828902890  4.36663020702070
 1 -3.43499429212921 -1.10172007640764  4.58595062486249
 1 -4.42095460716072 -2.33099218011801  4.00527447794780
 1 -2.42881819551955 -3.12305182248225 -0.32765338913891
 1 -1.62433026542654 -1.77326644294429  0.19586770837084
 1 -0.61418685218522 -3.03044434003400  2.17007122582258
 1 -1.58351307290729 -4.46765389658966  1.64055585358536
 1 -1.87337745154515  3.28975850025003  3.96308221792179
 1 -2.91361235133513  4.73680088608861  4.34900115781578
 1 -3.03118611361136  3.06736773427343  5.23167817381738
 1 -5.58567163106311  6.45174936933693  2.35531085248525
 1 -10.06432556605660  2.87031768886889 -3.35819907160716
 1 -9.87872867076708  4.96437028112811 -3.04665495619562
 1 -9.00555035483548  4.36865527952795 -5.24600980328033
 1 -7.98340785018502  4.95644538993899 -4.28073802880288
 1 -7.87394724372437  3.13480283908391 -4.60301022582258
 1 -8.35298288788879 -0.96819736263626 -4.92592359065907
 1 -8.57314829782978 -2.62497590269027 -4.04652728972897
 1 -9.60030010951095 -1.26130295369537 -3.44682158885889
 1 -4.29364672207221 -3.81888671527153 -1.42038532543254
 1  2.65755688868887 -6.18971691469147  0.82188814571457
 1  1.98853959735974 -5.12713969006901 -0.57879132873287
 1  3.81999412171217 -4.08001728352835  1.99742475007501
 1  2.82598758545855 -3.40744636573657 -1.62474501550155
 1  3.93621823512351 -1.86488004730473 -1.55929840034003
 1  4.37312948694869 -3.71710543974397 -1.91545047094709
 1  4.85507554845485 -1.23199962396240  0.83789567306731
 1  5.34949347664767 -2.85103673607361  1.75705058535854
 1  6.64369189588959 -3.78676186828683  0.21372925692569
 1  6.35675583598360 -2.76220382938294 -0.89498009350935
 1  7.44331326262626 -0.66354968006801  0.29086633213321
 1  7.87692979587959 -1.83031961506151  1.82822720802080
 1  8.86228033733373 -1.91094937013701 -1.17310064816482
 1  8.88806332503250 -4.13347211861186 -0.10239403180318
 1  10.62372171297130 -3.47816201830183 -0.19138925242524
 1  9.73430249164917 -3.32615370687069  1.54382482518252
 1  9.41799094969497  0.22069779597960  0.40938630243024
 1  10.20544064156416 -1.20277681158116  1.53930347034703
 1  11.66598173947395 -1.73658369026903 -0.01376574977498
 1  11.13028911561156 -0.85041794669467 -1.37824915851585
 1  11.58650968446845  1.39070349954995 -0.23162271747175
 1  12.27565238853885  0.41596278767877  1.43206148634863
 1  13.26366316701670  0.47193162546255 -1.74515675437544
 1  14.60672001030103 -0.86236444914491  0.63619929992999
 1  13.80592616361636 -1.63551256755676 -0.79601592309231
 1  15.26002699109911 -0.83973717191719 -1.01330822332233
 1  13.62740093429343  2.47594221332133 -0.29043083078308
 1  14.61065776607661  1.41647193639364  0.80447766166617
 1  16.23925558135814  1.43963257595760 -0.88535502620262
 1  15.02526811021102  1.93075698849885 -2.10210158985899
 1  15.19916132073207  4.33083846184618 -0.68534053215322
 1  16.23590636073607  3.36008264966497  0.36088598899890
 1  18.03382706410641  3.25199669086909 -1.28089716931693
 1  16.39866058645865  4.93155968486849 -3.31728408820882
 1  17.98130405390539  4.42474198749875 -3.48215282038204
 1  16.75490569076908  3.21892296229623 -3.31084911951195
 1  18.28744479167917  4.92979419691969  0.30537220142014
 1  18.67528505080508  5.72996714891489 -1.15304221862186
 1  16.96858840974097  5.97395689878988 -0.44814887618762
 1 -5.19146444784479 -7.83814324742474  0.46362282458246
 1 -6.50600503080308 -6.98729581618162  0.80138364586459
 1 -4.87140530913091 -6.72964454005401  1.78261271787179
 8 -7.65103269486949  6.90579708050805 -0.43806159015902
 1 -8.93824212131213  6.33238888378838 -1.83467915071507

