%nproc=4
%Mem=2GB
# td=(NStates=1) iop(3/107=0140000000,3/108=0140000000) iop(3/107=0140000000,3/108=0140000000) CAM-B3LYP/6-31G(d,p) 

TD

0 1
12 -6.75567813991399  0.50667981208121  0.15349296879688
 6 -4.46732383888389 -2.10110853265327  0.56754703170317
 6 -4.18169998539854  2.82666429952995  0.98765164676468
 6 -8.97070977567757  3.08360238433843 -0.18783828552855
 6 -9.41130922852285 -1.83284631423142 -0.51816187488749
 7 -4.80515558745875  0.31595099279928  0.63054208630863
 6 -3.94041130673067 -0.76257596439644  0.72239279467947
 6 -2.53646706530653 -0.54516627582758  0.98885094739474
 6 -2.48529849564956  0.95561571037104  1.21172333483348
 6 -3.99935619851985  1.47312739793979  0.91945672037204
 6 -2.11596788248825  1.35896769266927  2.54021858465847
 6 -1.70689943834383 -1.00224278767877 -0.01227990169017
 6 -0.12466058435844 -1.11306301290129  0.29889896339634
 6  0.75656673587359 -1.24861209810981 -0.83201137493749
 8  0.57476754485449 -0.71089370187019 -2.02785377557756
 8  1.90505079167917 -2.07410770937094 -0.62756767926793
 7 -6.64849659185919  2.49228959895990  0.36213996189619
 6 -5.49937049794980  3.33873251645165  0.87228352455246
 6 -5.87575179037904  4.72723240804080  0.76247111571157
 6 -7.21433214661466  4.87643373387339  0.36969355265527
 6 -7.75015671957196  3.55059386778678  0.07161199259926
 6 -5.08740366066607  5.89757718821882  1.01626929492949
 6 -7.92727428872887  6.10019693979398  0.21290081378138
 8 -7.47920183638364  7.24052566916692  0.48611646844684
 7 -8.88198175167517  0.57205806500650 -0.27576022512251
 6 -9.49864353675368  1.66371110641064 -0.26183723602360
 6 -10.90041667196720  1.53111298239824 -0.65893167436744
 6 -10.98644300180018  0.17236814121412 -0.81831268676868
 6 -9.70185184848485 -0.42330049324932 -0.56472854955496
 6 -11.89790656595659  2.55197139023902 -0.98062271307131
 6 -12.11328444894489 -0.54442800510051 -1.37497563126313
 6 -11.98063492559256 -0.65397756295630 -2.78624141884188
 7 -6.90349683258326 -1.42564512581258 -0.06367901240124
 6 -8.07389005060506 -2.26210620732073 -0.21607480548055
 6 -7.54039162426243 -3.66156347874787 -0.34769577967797
 6 -6.14369999119912 -3.71435059595960 -0.18687694829483
 6 -5.94347063576358 -2.38562737723772  0.16466265056506
 6 -8.31402992649265 -4.78286566436644 -0.51517433333333
 6 -4.97514371887189 -4.41683748184819  0.12699072477248
 8 -4.71288303700370 -5.65810634893489 -0.06444593799380
 6 -3.87400112551255 -3.51076163536354  0.48147279447945
 6 -3.43150666156616 -3.88653482898290  1.83946365936594
 8 -4.02106734683468 -4.25607234203420  2.84584325412541
 8 -2.06313798869887 -3.58307461276128  1.83529346854685
 6 -1.32413093519352 -3.98363345344534  2.95184961016102
 6  2.88092998579858 -2.02733791069107 -1.69668091219122
 6  3.87791155855586 -0.89235623672367 -1.42596812911291
 6  5.07763851925192 -0.84151102250225 -1.95867206880688
 6  5.60724470827083 -1.92143527822782 -3.02394937713771
 6  6.21985581018102  0.06298864596460 -1.54940149864987
 6  7.43485217921792 -0.52858864096410 -0.82148888618862
 6  8.50733329362936  0.48845448004800 -0.71114959545955
 6  9.72611570097010 -0.16153307360736  0.04206590089009
 6  9.31943946024602 -0.56846566126613  1.47697206600660
 6  11.03467579757976  0.74176903110311 -0.12402756435644
 6  12.28453372387239  0.02948425562556  0.25776408760876
 6  13.38542008460846  1.08646592129213  0.38523142154215
 6  14.90290662586259  0.34926820492049  0.65231989408941
 6  14.91572656075608 -0.02292457295730  2.19073899789979
 6  15.95511513991399  1.33775867786779  0.11340454575458
 6  17.26901637973797  0.65628085248525  0.10152327842784
 6  18.57919746714672  1.55010220142014 -0.23696384318432
 6  19.91489369046905  0.89360785558556 -0.46520660436044
 6  19.97545734703471  0.05666109640964 -1.84604039523952
 6  20.92514968386839  1.85399681768177 -0.26680177607761
 1 -3.29496013431343  3.50384163516352  1.22203160486049
 1 -9.74351833433343  3.89841892699270 -0.44047768166817
 1 -10.25613810541054 -2.58898929822982 -0.99605243114311
 1 -2.23247576437644 -0.78743636143614  1.80017006530653
 1 -1.72759209780978  1.72835331153115  0.62542899629963
 1 -1.31093247694769  0.83599191359136  3.05834654575458
 1 -2.04709288318832  2.56111468786879  2.58504462226223
 1 -2.81957428992899  0.99338722402240  3.37967383648365
 1 -2.10844986528653 -2.00697197019702 -0.30141792859286
 1 -1.88337350635063 -0.45817729062906 -0.84394418521852
 1  0.16877487578758 -0.56575800910091  1.06418228342834
 1  0.22584886508651 -1.98288462226223  1.14346457855786
 1 -4.05096962736274  5.54142197009701  0.45419037673767
 1 -5.33732401300130  6.72350502640264  0.82691959805981
 1 -4.91325235343534  5.85236419741974  2.19287706000600
 1 -9.34302731683168  5.91863697289729 -0.00585696149615
 1 -12.03709326292629 -1.67475834333433 -1.17282170937094
 1 -13.10438665366537 -0.11528512871287 -1.05205284168417
 1 -12.56195401850185 -1.68408052345234 -3.23231034813481
 1 -11.85092205600560  0.21060848234823 -3.52822499199920
 1 -10.95170199459946 -1.18345166216622 -3.23051965936594
 1 -8.92758194149415 -4.46310286588659 -1.30548277627763
 1 -7.83923913851385 -5.90065007760776 -1.02430208210821
 1 -8.71868914891489 -5.27956991819182  0.44563917341734
 1 -3.24228380978098 -3.21904562946295 -0.44226253305330
 1  3.22908452385238 -2.97620489428943 -1.88016373347335
 1  2.40774506330633 -2.02382829782978 -2.98450868616862
 1  3.06784411211121 -0.26590933933393 -0.56098249664967
 1  4.78908196519652 -2.00526399889989 -4.06392650765076
 1  6.85535911431143 -1.59086776217622 -3.73201442534253
 1  5.59207303470347 -2.89748236253625 -2.76460064386439
 1  6.68857927982798  0.61735707310731 -2.33649626682668
 1  5.74651976137614  0.91139668746875 -1.03829809320932
 1  6.89026020492049 -0.74991318841884  0.39661138273827
 1  7.67248264666467 -1.22692148244824 -1.42935241114112
 1  8.70361249264927  1.15777637243724 -1.67146993229323
 1  8.48160665876588  1.49349453765377 -0.00943523512351
 1  10.04660710781078 -1.45330277397740 -0.40494765236524
 1  8.59120136443645 -1.32558137383738  1.89216757755776
 1  10.10309637903790 -0.88891277247725  1.85264715611561
 1  9.03518673027303  0.48670744834483  2.01355266036604
 1  10.94481811961196  1.35349810971097 -1.11240841244124
 1  11.10777052365236  1.89078795439544  0.70044392469247
 1  12.15329287148715 -0.48156059555956  1.08197188048805
 1  12.70684283828383 -0.98242646324632 -0.58251124862486
 1  13.35422029202920  1.78114765976598 -0.42166107070707
 1  13.15858790359036  1.70098434973497  1.24096988638864
 1  14.89905133093309 -0.58567608360836  0.05189699849985
 1  14.60951085098510  0.88689908540854  2.75369814281428
 1  14.13387066056606 -0.87453512541254  2.37607510561056
 1  15.78241527462746  0.03422983988399  2.40974745244524
 1  15.55323645854585  2.02254224762476 -0.79612958765877
 1  15.98499253185319  2.29788932443244  0.84479280248025
 1  17.56880819591959 -0.01696852625263  0.91274146084608
 1  17.23303082728273  0.23378154735474 -0.76866824422442
 1  18.69369437653766  1.90702725052505 -1.13464645294529
 1  18.88900889698970  2.18579248614861  0.68311498199820
 1  20.02696525772577  0.00451329752975  0.47309065986599
 1  19.34282260026002  0.58738378797880 -2.60475260046005
 1  20.92480677067707  0.07046524472447 -2.41249538293829
 1  19.29068179517952 -0.95236295469547 -1.64880295499550
 1  20.49478625722572  2.86080565966597  0.53446420002000
 1  22.02121986228623  1.33351993469347  0.24886217121712
 1  21.00698735163516  2.53784127132713 -1.32124692099210
 1 -0.14945057015702 -3.95370812021202  2.72323067106711
 1 -1.56798647964797 -5.08902617631763  2.74773541014101
 1 -2.13068708200820 -3.34895337243724  3.86291044424442
 8 -11.61421979627963  3.85620041924192 -1.11055286898690
 1 -13.08334884638464  1.73036427652765 -1.31964256925693

