%nproc=4
%Mem=2GB
# td=(NStates=1) iop(3/107=0140000000,3/108=0140000000) iop(3/107=0140000000,3/108=0140000000) CAM-B3LYP/6-31G(d,p) 

TD

0 1
12 -6.80816338843884  0.62687183128313  0.06986460596060
 6 -4.49364647114711 -2.07742616441644  0.52753303030303
 6 -4.29169098449845  2.71141277437744  1.17093997559756
 6 -8.80434313901390  3.25528955305531 -0.45159466116612
 6 -9.10452855045505 -1.62154518411841 -0.91416147484748
 7 -4.68565363726373  0.27979737743774  0.61406043814381
 6 -4.03974123972397 -0.86016572337234  0.66733728912891
 6 -2.67813123172317 -0.63070482968297  1.08252031433143
 6 -2.52302226802680  0.83700384918492  1.43967613011301
 6 -4.01948821172117  1.41857194239424  1.10986576127613
 6 -2.41138742444244  1.01564336023602  2.95921048384838
 6 -1.53533228162816 -0.93712627602760 -0.02114078777878
 6 -0.22834095239524 -1.16441814841484  0.54463353685369
 6  0.83568464766477 -1.32386962386239 -0.60451862566257
 8  0.74708477657766 -0.80268288078808 -1.72209319951995
 8  1.72885317191719 -2.16418671727173 -0.25440036253625
 7 -6.61938368056806  2.59748011801180  0.29377312521252
 6 -5.59708026892689  3.22169081228123  0.83586988318832
 6 -5.91687590279028  4.63540322512251  0.91505637423742
 6 -7.07116783018302  4.87160325082508  0.54385096839684
 6 -7.70262196609661  3.53201200960096 -0.06504167276728
 6 -5.00764568486849  5.80774820532053  1.39603727172717
 6 -7.76670823212321  6.17292421252125  0.22568209190919
 8 -7.29940385658566  7.30121173777378  0.62860071687169
 7 -8.58652220572057  0.70921178037804 -0.47088973807381
 6 -9.34568824122412  1.91369610491049 -0.65369642194219
 6 -10.75319194949495  1.58534840594059 -0.89625540674067
 6 -10.78727308480848  0.17714861926193 -1.03176403190319
 6 -9.39642130543054 -0.28353651685169 -0.76213829052905
 6 -11.71488826412641  2.59992618571857 -1.25324997579758
 6 -12.02407552805280 -0.56933049534954 -1.66909504320432
 6 -12.02796965906591 -0.64552671787179 -3.24494728942894
 7 -6.80988747164716 -1.32186474777478 -0.13743638813881
 6 -7.86891955355536 -2.23496349304931 -0.44070726872687
 6 -7.52032961806181 -3.60239756215622 -0.59284029412941
 6 -6.25433105430543 -3.67809697059706 -0.17987624822482
 6 -5.83125941464146 -2.28528734323432  0.02765895019502
 6 -8.31458998249825 -4.83200057785779 -0.99781259715972
 6 -5.00565677017702 -4.47893369146915  0.16734476017602
 8 -4.92487423612361 -5.56618715701570  0.02304281088109
 6 -4.00906463186319 -3.46227678687869  0.60492513971397
 6 -3.60012352325232 -3.78003417891789  1.93631334433443
 8 -4.28677391749175 -4.06325306010601  2.94829349914992
 8 -2.04695637053705 -3.39126543184318  1.92091203040304
 6 -1.36396491859186 -3.93156824692469  3.03977840304030
 6  2.96643853665367 -2.26620179707971 -1.18987023112311
 6  4.05565933333333 -1.40026702780278 -0.59859539183918
 6  5.04821557695770 -1.02714958635864 -1.39050525212521
 6  5.39124310811081 -1.87127026172617 -2.68239522172217
 6  6.12135596019602 -0.15864351725173 -1.07718427692769
 6  7.37491618561856 -0.79236501860186 -0.64712144944494
 6  8.57681024132413  0.11925756035604 -0.24730321082108
 6  9.79126221562156 -0.48329524982498  0.21343303760376
 6  9.81138865516552 -1.04350316501650  1.52225659445945
 6  11.00494282428243  0.58757361156116  0.11746658505851
 6  12.33186845734573  0.00672197939794  0.05845415661566
 6  13.30038158075808  1.14135140984098  0.25738863726373
 6  14.87907424262426  0.44647792589259  0.26213087518752
 6  15.02059704780478 -0.49091137163716  1.56603652765277
 6  15.79294892329233  1.53884878687869 -0.07221401610161
 6  17.33066254435444  0.82935816021602 -0.30774764866487
 6  18.27491703910391  1.87440463166317 -0.47117726452645
 6  19.48571077217722  1.21625011981198 -0.69617970167017
 6  19.46090589188919  0.47711314161416 -2.00881667286729
 6  20.68162533143314  2.38935035303530 -0.73847894379438
 1 -3.60670130843084  3.57797904890489  1.48674807650765
 1 -9.55981996449645  4.33334241934194 -0.84028766266627
 1 -9.61130362196220 -2.25052545184518 -1.40047287318732
 1 -2.30844336113611 -1.26671428922892  2.00524057235724
 1 -1.96447578617862  1.35616609280928  0.89969642304230
 1 -1.80176155985599  0.34436275067507  3.37898860996100
 1 -2.27193536743674  2.05252382878288  3.13184930273027
 1 -3.44202653515352  0.66137402270227  3.48472434153415
 1 -1.61444046434643 -1.69008028102810 -0.83512129892989
 1 -1.52139730873087 -0.26109758265827 -0.56061585238524
 1  0.00137813611361 -0.31668310161016  1.02856872207221
 1 -0.16955067486749 -1.87084341814181  1.26147637973797
 1 -4.17007153755375  5.93505133303330  0.69450440814081
 1 -5.65291557215722  6.93662633853385  1.07825473157316
 1 -4.79754078227823  5.80386934793479  2.44082185448545
 1 -8.84887790189019  6.18086319551955 -0.04118049384938
 1 -12.20864041764177 -1.65027589508951 -1.36537096429643
 1 -13.02788900390039 -0.11523512371237 -1.37445508190819
 1 -13.16402422552255 -1.26657877327733 -3.27071418851885
 1 -11.97739470327033  0.42680010151015 -3.82392456195619
 1 -11.11030785518552 -1.07487080408041 -3.08647525492549
 1 -9.60871005430543 -4.07741429702970 -1.43738596659666
 1 -7.23516873147315 -5.40861087368737 -1.58177782968297
 1 -8.72174945494549 -5.65857781898190  0.30731534103410
 1 -3.35895547694770 -3.54972869776978 -0.25238354515452
 1  3.03020463586359 -3.36076335013501 -0.90153587068707
 1  2.63272756155616 -2.11117703270327 -2.23077331263126
 1  3.51422875057506 -0.85447819621962  0.36891049264926
 1  4.73516657365737 -1.57629110161016 -3.39526964196420
 1  6.47866144454446 -1.69711838723872 -3.39532075597560
 1  5.21061488888889 -3.02990560486049 -2.55033921772177
 1  6.11315173707371  0.64372971037104 -1.67680029722972
 1  5.79079418881888  0.26893244104410  0.02205794239424
 1  7.21896307520752 -1.66587478457846  0.11980370197020
 1  7.67569296769677 -1.22182097239724 -1.47203667956796
 1  8.84409654105411  0.66304689948995 -1.12353513881388
 1  8.28931742984298  0.79385457365737  0.56240194859486
 1  9.87750019711971 -1.29289673337334 -0.52371952955295
 1  8.95163740804080 -1.67582639833983  1.65290365116512
 1  10.79074514391439 -1.50233411461146  1.88861075247525
 1  9.47355056665667 -0.22483370577058  2.18989029412941
 1  10.91595523332333  0.98234099399940 -1.08910608220822
 1  10.96560630723072  1.48409728532853  0.84213809410941
 1  12.27721526372637 -0.65515795529553  0.78732241554155
 1  12.71131328532853 -0.58293651425143 -0.89260225772577
 1  13.05307017701770  2.06423596859686 -0.45692459705971
 1  13.49866191099110  1.35878012931293  1.44442023142314
 1  15.15062648844884 -0.36803431943194 -0.87305549674967
 1  14.70848074797480  0.00467086258626  2.47481025402540
 1  14.64980225372537 -1.42153982588259  1.77532503060306
 1  16.37878491159116 -0.85296887998800  1.55586206390639
 1  15.67869900480048  2.28398839223922 -0.78876885158516
 1  16.05031906450645  2.25989552505250  1.12263058625863
 1  17.50471178627863  0.03553672427243  0.79665985268527
 1  16.94198172237224  0.51103927312731 -1.29153053045305
 1  17.80649565666567  2.32048859665967 -1.05656864516452
 1  18.76424642074208  2.30812471937194  0.37235390589059
 1  19.71550411161116  0.60453329952995  0.07571092189219
 1  19.18613693169317  0.96035108470847 -3.01836396159616
 1  20.29025331533153 -0.01660346214621 -2.27264139753975
 1  18.67449017601760 -0.08870658905891 -2.53899197389739
 1  21.00088686728673  3.10668024712471  0.06390714431443
 1  21.44063180348035  1.98966554925493 -1.13906662166217
 1  20.69647630053005  2.95385287248725 -1.33707850415042
 1 -0.40480610571057 -4.01027377677768  2.70692904090409
 1 -1.92653233423342 -4.65544281798180  4.02296293289329
 1 -1.51220523382338 -3.29255773287329  3.89043319651965
 8 -11.55831420572057  3.78860365956596 -1.26995880958096
 1 -12.46173668516852  2.14121536163616 -1.88688929392939

