%nproc=4
%Mem=2GB
# td=(NStates=1) iop(3/107=0140000000,3/108=0140000000) iop(3/107=0140000000,3/108=0140000000) CAM-B3LYP/6-31G(d,p) 

TD

0 1
12 -6.82735530763076  0.63214235833583  0.12902052155216
 6 -4.40340744724472 -1.96535495729573  0.26342661966197
 6 -4.31908372377238  2.88115974907491  0.97961084268427
 6 -9.08744144884488  3.07927195129513 -0.27705720742074
 6 -9.32835093269327 -1.89528255785579 -0.57836789548955
 7 -4.75284035593559  0.65296469416942  0.43023205530553
 6 -3.93449071467147 -0.63444315111511  0.50812136753675
 6 -2.45002842144214 -0.39385114431443  0.98955101740174
 6 -2.54560452625263  1.09022917171717  1.13736589908991
 6 -3.91744800770077  1.54922500770077  0.77873264796480
 6 -2.17414370007001  1.48667046294629  2.65380994379438
 6 -1.51534028242824 -0.74850741414141 -0.15671434513451
 6  0.01112299399940 -0.80490219681968  0.30764983848385
 6  1.01952303150315 -1.12872010891089 -0.79341751555156
 8  0.94466453455346 -0.57852046454645 -1.90325131533153
 8  1.92186247284728 -1.92384268286829 -0.23353827632763
 7 -6.73216495869587  2.51417178717872  0.46030977887789
 6 -5.70025058595860  3.25987463066307  0.81788808500850
 6 -6.13358757395740  4.77096678147815  0.75210007860786
 6 -7.40745145854585  4.82896898739874  0.45461204450445
 6 -7.91180288418842  3.52359116751675  0.28147297869787
 6 -5.11882680298030  5.84342177267727  1.09995766376638
 6 -8.30886244754475  6.07130405050505  0.48173769746975
 8 -7.77778169436944  7.09347096369637  0.66492434923492
 7 -8.67793134663466  0.70677153635364 -0.47297994709471
 6 -9.46891056345635  1.84639937523752 -0.53050410271027
 6 -10.91756838713872  1.40949082018202 -0.90328610981098
 6 -10.95002936043604  0.06554745914591 -1.12071292679268
 6 -9.54738640194019 -0.40632879607961 -0.68193026972697
 6 -11.94393116841684  2.35104129722972 -1.17964261506151
 6 -12.28530165066507 -0.86907046934693 -1.44497263096310
 6 -12.36845370747075 -0.93965613081308 -3.11637443214321
 7 -6.80380686358636 -1.46727928922892 -0.02503514801480
 6 -8.04648731033103 -2.34597459415942 -0.39621281928193
 6 -7.65889347444744 -3.69087641004100 -0.30059106920692
 6 -6.08218383958396 -3.64527368826883 -0.03224148474847
 6 -5.74969125782578 -2.20348916341634 -0.03709752545255
 6 -8.53313183668367 -4.92680005780578 -0.54678749464946
 6 -4.97827403190319 -4.29793559165917  0.13743176887689
 8 -4.64068581728173 -5.47224776307631  0.03237374397440
 6 -3.83401712711271 -3.25771633083308  0.50891553875387
 6 -3.24398790969097 -3.52372854835484  1.87300701370137
 8 -4.01852709280928 -3.74977171197120  2.73816248604860
 8 -1.93414508940894 -3.60104640994099  1.69817975717572
 6 -1.13819234133413 -3.81391648174817  2.87910233543354
 6  2.95939783258326 -2.13814899179918 -1.25062630673067
 6  4.05897966536654 -1.35376237733773 -0.75401093339334
 6  5.19193994939494 -0.97474434583458 -1.48679488108811
 6  5.32595657945795 -1.41029416411641 -3.02359934213421
 6  6.28339216381638  0.04606695379538 -1.25361191969197
 6  7.43024171817182 -0.65602138423842 -0.72083882118212
 6  8.55176773707371  0.25510114471447 -0.08556703720372
 6  9.79434252365237 -0.47272419271927  0.44522621692169
 6  9.64869238553855 -1.27261607630763  1.52435680448045
 6  10.94521685168517  0.50895574977498  0.58486332473247
 6  12.31909718021802 -0.23774246704670  0.28465677687769
 6  13.46984852745275  0.73899117381738  0.28258115651565
 6  14.87946428162816  0.03646692479248  0.34845950805081
 6  15.15452044014401 -0.60842312281228  1.89059898389839
 6  15.91494112251225  1.26148105010501  0.06157936323632
 6  17.37139661776177  0.45117034143414 -0.15138201210121
 6  18.34922446984699  1.60403759495950 -0.35552569936994
 6  19.74792699379938  1.15905440024002 -0.73636372007201
 6  19.81584138543855  0.50552598289829 -2.14772056325633
 6  20.72943011191119  2.17164858285829 -0.57115221112111
 1 -3.58275891419142  3.41074232523252  1.18746814851485
 1 -9.87793177567757  3.94052313741374 -0.81155478937894
 1 -10.14248674027403 -2.56994739403940 -0.87020984688469
 1 -2.17319983678368 -1.16972459025903  1.96975702400240
 1 -1.98506784538454  1.66443691989199  0.72612906630663
 1 -1.04841622532253  1.20200851525153  3.07813852495250
 1 -2.32419059295930  2.52319089548955  2.87800391819182
 1 -2.87977030953095  0.84970285558556  3.37388325742574
 1 -2.03078209850985 -1.70493176617662 -0.43621140794079
 1 -1.50532570157016 -0.16191766466647 -1.15550534133413
 1  0.35572357065707  0.29140770747075  0.90110597579758
 1 -0.00849456925693 -1.39533586738674  1.31456168826883
 1 -4.38632316271627  5.97224505240524  0.44694965266527
 1 -5.66029631023102  6.87846052195220  0.69569647574757
 1 -4.85154618281828  5.79632859385939  2.23701147344734
 1 -9.46016903100310  5.71938704790479  0.26795041924192
 1 -12.39246880048005 -1.82095296279628 -0.70330475767577
 1 -12.84860107510751 -0.14641824202420 -1.16346398279828
 1 -13.45703352645265 -1.38939105450545 -3.29339645674568
 1 -12.21982894669467 -0.12827540604060 -3.69705187468747
 1 -11.61873869826983 -1.27898121512151 -3.41691829922992
 1 -9.39893907720772 -4.97838439403940 -1.36217844584458
 1 -8.12274748934894 -6.10657066966697 -0.29387903980398
 1 -9.42210949094910 -5.02798475967597  0.30430504000400
 1 -3.05785536693669 -3.36341006590659 -0.50859916671667
 1  3.20660227562756 -3.10843811761176 -1.15463118021802
 1  2.68710299909991 -1.81613752875287 -2.27620785608561
 1  3.84506183388339 -0.74000674907491  0.37722132373237
 1  4.57800085708571 -0.89653312581258 -3.69684979998000
 1  6.14456803520352 -0.88432710811081 -3.39221044494449
 1  5.96084991239124 -2.31755436973697 -2.95354953875388
 1  6.66068649054905  0.70007534493449 -1.81607422462246
 1  6.01303641304130  0.81191673947395 -0.56426068946895
 1  6.99477065596560 -1.22151034813481 -0.28180645904591
 1  7.93586898529853 -1.49630842114211 -1.29945942184218
 1  8.58146027742774  1.10664125892589 -0.70057284258426
 1  7.96735523362336  0.78404359255926  0.76390209860986
 1  10.00496294339434 -1.10464790849085 -0.54335149274927
 1  8.97213945824583 -1.85859467516752  1.22757111791179
 1  10.32129819921992 -1.69567344854485  1.73628551995200
 1  9.51695490709071 -0.79073029542954  2.16613791889189
 1  10.92933657145715  1.22134489438944 -0.02237940954096
 1  10.80649039563956  0.95632450805081  1.28281216151615
 1  12.85843338553855 -0.97016945644564  1.19325300860086
 1  12.19807196119612 -0.67772599319932 -0.70371336883688
 1  13.61253612361236  1.57737728272827 -0.61622052665267
 1  13.29396144094409  1.33804805610561  1.07546333573357
 1  15.19893131893189 -0.72479999599960 -0.40149834103410
 1  14.68254815471547 -0.15305490999100  2.59497227022702
 1  14.35902317581758 -1.30176784868487  1.75331282938294
 1  16.38638567166717 -1.11505508860886  1.46591306900690
 1  15.51473260816081  1.82400239363936 -0.76278625332533
 1  15.82012604520452  1.96338587408741  0.90208853205321
 1  17.60796211131113 -0.19687651705170  0.74724491119112
 1  17.39751727592759 -0.35664749554956 -0.75223660106011
 1  18.27296230333033  2.28734528232823 -1.25402839113911
 1  18.32674267036704  2.08441234813481  0.56099276977698
 1  20.00205276647665  0.59542238843884  0.07904125492549
 1  19.92466078407841  1.41347639723972 -2.88331045624562
 1  20.81912620262026 -0.02431423322332 -2.39394352775278
 1  18.96485921292129 -0.20031775017502 -1.98374644934493
 1  20.70874765336534  2.90895047414742  0.32445319891989
 1  21.66552429272927  1.87421400410041 -0.79279199419942
 1  20.44242089498950  3.10797828502850 -1.26832162846285
 1  0.27761213611361 -3.99139188858886  2.53632198019802
 1 -1.67730741174117 -5.39504677837784  3.25623626022602
 1 -1.09498351165117 -2.97757623472347  3.70647480068007
 8 -11.73551192549255  3.62078687788779 -1.24988680238024
 1 -13.19336984848485  1.56484772487249 -0.87001760676068

