%nproc=4
%Mem=4GB
# td=(NStates=1) iop(3/107=0140000000,3/108=0140000000) iop(3/107=0140000000,3/108=0140000000) CAM-B3LYP/6-31G(d,p) 

TD

0 1
12 -5.55926743334333  1.19727460176018  0.20856946214621
 6 -5.09993038023802 -2.07348581188119 -0.35792265906591
 6 -3.39706849594959  1.16846713151315  2.81356672997300
 6 -6.13090188588859  4.49418268246825  0.56798700750075
 6 -7.98792455955596  1.20065091579158 -2.32652032553255
 7 -4.35931018431843 -0.21827001880188  1.03620495929593
 6 -4.31767529502950 -1.53755745734573  0.66580893049305
 6 -3.26444956945695 -2.27329063186319  1.50159452315232
 6 -2.90783395439544 -1.31184407530753  2.61856841294129
 6 -3.57984541194119  0.03515088738874  2.14358894409441
 6 -3.49578261766177 -1.75229867126713  3.98050074947495
 6 -1.97441263446345 -2.66492390169017  0.69254455995600
 6 -0.95032667616762 -3.63280086068607  1.33058664666467
 6  0.19337443794379 -3.90696453715372  0.56616481118112
 8  0.55149521382138 -3.46504381798180 -0.55842207640764
 8  0.95301214691469 -4.73587320462046  1.22467707500750
 7 -4.73230404670467  2.57581695859586  1.35542577427743
 6 -4.02440453025303  2.44097151885189  2.52256285958596
 6 -3.80285978967897  3.66599510171017  3.30134069026903
 6 -4.56832738543854  4.60308183648365  2.56681595289529
 6 -5.17408351255125  3.96865496069607  1.44516060836084
 6 -2.83364872797280  3.78987636343634  4.38486267566757
 6 -4.58037456805681  6.04423184368437  2.91143064786479
 8 -3.98269831783178  6.55395328332833  3.86790068996900
 7 -6.90221402130213  2.60296019181918 -0.75968762506251
 6 -6.98306102090209  3.91805142234223 -0.37894958365837
 6 -7.92712789918992  4.53516024082408 -1.19325343484348
 6 -8.34266371967197  3.61858878877888 -2.07974691909191
 6 -7.79450834133413  2.34876088488849 -1.68877482398240
 6 -8.45832882378238  5.88052796219622 -1.10846035483548
 6 -9.34087845114512  3.73092349054905 -3.20405503830383
 6 -8.66161761546155  4.02467061326133 -4.55505190919092
 7 -6.43702212121212 -0.11951696939694 -1.12964805680568
 6 -7.41062059165917 -0.04279034763476 -2.11992620332033
 6 -7.60754826202620 -1.35398710231023 -2.63095561816182
 6 -6.63908345714571 -2.17829740154015 -2.09337550325032
 6 -5.94960337573757 -1.40550411551155 -1.14981111151115
 6 -8.44658011581158 -1.64836496249625 -3.84952184838484
 6 -6.23255692279228 -3.59110469436944 -1.96795035013501
 8 -6.56269066456646 -4.54532223062306 -2.57238350345035
 6 -5.10307886998700 -3.54285233783378 -0.82474479427943
 6 -5.46905438283828 -4.62988842994300  0.16743041484148
 8 -5.93912968456846 -4.41717072517252  1.25533189658966
 8 -4.97005670387039 -5.83552474887489 -0.23063620822082
 6 -5.33126069026903 -6.92709456275628  0.61708353815382
 6  2.30690166336634 -5.08074919511951  0.55946990139014
 6  3.32558709370937 -4.12449261016102  0.84767266706671
 6  4.04458384858486 -3.26488935903590  0.08030166516652
 6  3.76927126602660 -3.18733367466747 -1.40079958445845
 6  5.11107753355336 -2.39883493109311  0.62900669946995
 6  6.45791066236624 -2.74368729392939 -0.07254578717872
 6  7.60207553115312 -1.79524888038804  0.61686737723772
 6  8.92267308860886 -1.85681051465147 -0.06572435493549
 6  9.53326970867087 -3.18312895329533  0.11536807910791
 6  9.90550112921292 -0.80241047844784  0.34093660916092
 6  11.32584988738874 -0.73013262016202 -0.36409517571757
 6  12.18718640724072  0.47827245474547  0.15380222782278
 6  13.57885034083408  0.58043291319132 -0.62296705990599
 6  14.49034733373337 -0.62505190779078 -0.46375052595260
 6  14.32790873047305  1.83293946554655 -0.10108936373637
 6  15.63833802420242  2.07046507470747 -0.89580457545755
 6  16.11190377477748  3.41451620442044 -0.57295790899090
 6  17.42764801390139  3.76986482808281 -1.22833676887689
 6  17.26672926262626  3.81872676437644 -2.80921314551455
 6  17.99460886698670  5.11043630893089 -0.74172363126313
 1 -2.76294201700170  1.09405368076808  3.57954842324232
 1 -6.38890686948695  5.56958233863386  0.60843983568357
 1 -8.77317772497250  1.19013931683168 -3.03232871167117
 1 -3.79270033483348 -3.26763207860786  1.82826088688869
 1 -1.75449257315732 -1.36510417201720  2.83610488658866
 1 -3.04733451255125 -2.55542870407041  4.67227077107711
 1 -3.50449124182418 -1.05571547594759  4.78767079687969
 1 -4.57934044574457 -1.77970705160516  3.93102705320532
 1 -2.00190550425042 -3.22826234353435 -0.30346096989699
 1 -1.49938777117712 -1.69722883918392  0.27328545014501
 1 -0.48307374087409 -3.16865816141614  2.22778699739974
 1 -1.37757247884788 -4.49312644384438  1.69487128512851
 1 -1.78532864666467  3.33791331573157  4.19180509020902
 1 -3.12293328342834  4.67690489648965  4.73772002970297
 1 -3.07844083908391  3.10703170067007  5.08488349434944
 1 -5.13027609150915  6.70767496189619  2.17673299469947
 1 -9.97589672317232  2.88705936303630 -3.30709396109611
 1 -10.12941373927393  4.60679452355235 -2.97966825752575
 1 -9.24118391819182  3.97889630363036 -5.42371757405741
 1 -8.03662317171717  4.92069181458146 -4.65494544954495
 1 -7.95827567656766  3.42826218501850 -4.84380430523052
 1 -7.94807239683968 -1.08168871177118 -4.92269326762676
 1 -8.40169115211521 -2.71252465756576 -3.99274191119112
 1 -9.56462654215422 -1.20571739513951 -3.76729363606361
 1 -4.15584294169417 -3.83989881648165 -1.26966025292529
 1  2.63814494749475 -6.07830577357736  1.03431938883888
 1  2.12456319971997 -5.33238021412141 -0.39075252485249
 1  3.51585370767077 -4.03771305310531  1.80453546114611
 1  2.70068505520552 -3.39079470057006 -1.61623416441644
 1  3.87427204050405 -2.27359091839184 -1.72967543804380
 1  4.34758693269327 -3.72929665886589 -2.05302422832283
 1  4.89196923782378 -1.28146457045705  0.25877776127613
 1  5.18105663296330 -2.42582421482148  1.69195407570757
 1  6.76705423212321 -3.68828202030203  0.20059794379438
 1  6.53468362876288 -2.57997560656066 -1.16633722922292
 1  7.20237916921692 -0.68875220032003  0.56280352585259
 1  7.87609971287129 -1.93076966006601  1.72098648394840
 1  8.50846495579558 -1.81917019221922 -1.17981131923192
 1  8.95586010471047 -4.14201297269727 -0.36177997039704
 1  10.47107644844485 -3.26083028512851 -0.54901501500150
 1  9.70611967336734 -3.37504859635964  1.24427487018702
 1  9.50287943854386  0.34894062026203  0.37796316011601
 1  9.97287738523852 -0.89791632553255  1.43600314031403
 1  11.71665680698070 -1.65601563346335 -0.40157453065307
 1  10.84825091179118 -0.34615752065207 -1.43761509510951
 1  11.54611564506451  1.42943737293729 -0.00355991119112
 1  12.35725054835483  0.27647883928393  1.24129240944094
 1  13.47765456615661  0.67066149844985 -1.70841308000800
 1  14.44531386968697 -1.13457166986699  0.54546022602260
 1  14.32571814281428 -1.51924094039404 -1.01537785928593
 1  15.50811179957996 -0.50010320852085 -0.72627952045205
 1  13.70304849904991  2.87095171427143  0.01444965726573
 1  14.54957165746575  1.69077936713671  0.91458867276728
 1  16.29894154995500  1.24047265996600 -0.58928541924192
 1  15.48370395379538  2.08264217701770 -1.98643002270227
 1  15.42711411601160  4.25090046804680 -0.77459945804581
 1  16.14815758585859  3.53695033643364  0.58448834923492
 1  18.22386606800680  2.96860835203520 -0.97979705930593
 1  16.56669739013901  4.55388191709171 -3.10687304710471
 1  18.19806573007301  3.98735824912491 -3.32754735983598
 1  16.90538073827383  2.84576564656466 -3.05372340694069
 1  18.57536358355835  5.21843306080608  0.39256092029203
 1  18.73469099139914  5.38665281748175 -1.51223813821382
 1  17.21958350925092  5.88226772987299 -0.95484954625463
 1 -5.39282458385839 -7.66230566366637  0.15897235953595
 1 -6.24597902820282 -6.79885697229723  1.02122563006301
 1 -4.48148631723172 -7.07723929952995  1.37662211881188
 8 -7.88227581918192  6.73678017881788 -0.32774055805581
 1 -9.61367966506651  6.14025967086709 -1.47057274007401

