%nproc=4
%Mem=4GB
# td=(NStates=1) iop(3/107=0140000000,3/108=0140000000) iop(3/107=0140000000,3/108=0140000000) CAM-B3LYP/6-31G(d,p) 

TD

0 1
12 -5.71990349694969  1.21867674197420  0.27006561176118
 6 -5.03688407560756 -2.15463392669267 -0.33244011081108
 6 -3.43384217331733  1.16839712451245  2.74818019131913
 6 -6.19130792649265  4.56503976817682  0.63726393519352
 6 -8.01472723982398  1.15386623732373 -2.37660533403340
 7 -4.43501775507551 -0.32137032883288  1.12438377717772
 6 -4.30827435493549 -1.57473117471747  0.72382473207321
 6 -3.17864098859886 -2.36477978077808  1.44438880258026
 6 -2.96899007000700 -1.43026591749175  2.69181573767377
 6 -3.60320774817482 -0.10356298399840  2.16095068026803
 6 -3.60739377877788 -1.77754119551955  3.96273897329733
 6 -2.06026121932193 -2.66589399869987  0.58370367586759
 6 -0.98855049854985 -3.42111969256926  1.34054764276428
 6  0.21712681318132 -3.77941178187819  0.58853704840484
 8  0.43693375767577 -3.46491380498050 -0.57312354655466
 8  0.98539538523852 -4.56796641394139  1.34798940624062
 7 -4.98979979627963  2.63397277417742  1.50295052675268
 6 -4.08136022582258  2.44489191089109  2.47582818611861
 6 -3.70440994469447  3.71136963916392  3.19811036723672
 6 -4.54743529622962  4.67458898719872  2.57631690299030
 6 -5.23797990219022  3.99090718591859  1.49402549484949
 6 -2.79896525962596  3.85255263106311  4.39156334573457
 6 -4.63065959655966  6.08606602710271  2.89705921072107
 8 -4.01990203820382  6.68520640864086  3.79350325022502
 7 -6.89362316221622  2.60811070687069 -0.66672832913291
 6 -6.94172688748875  3.88921853905391 -0.33170485918592
 6 -7.89400458685869  4.53064978977898 -1.26428053755376
 6 -8.40033948724872  3.58063499339934 -2.07748669306931
 6 -7.74982387288729  2.32385839463946 -1.78408435493549
 6 -8.20486347724773  5.96233614301430 -1.22552206100610
 6 -9.53863822712271  3.65498589678968 -3.16866149894989
 6 -8.87050850455046  4.04539268546855 -4.51744814881488
 7 -6.39913833283328 -0.10269528722872 -1.07893298529853
 6 -7.36653618321832 -0.06638270687069 -2.12971718241824
 6 -7.55436294349435 -1.30610231383138 -2.75648817141714
 6 -6.67525707450745 -2.16019559135914 -2.02470863656366
 6 -5.97531594699470 -1.42264582968297 -1.08469459985999
 6 -8.63966942474247 -1.68970909690969 -3.70660755695570
 6 -6.17968163526353 -3.43757934183418 -1.94956851195119
 8 -6.51365576107611 -4.45291298969897 -2.51940820592059
 6 -5.06683524562456 -3.50030808340834 -0.87470979077908
 6 -5.33858133553355 -4.61599704080408  0.06753042484248
 8 -5.78490426202620 -4.57735674377438  1.18477484088409
 8 -4.89875957415742 -5.78742993939394 -0.41430457505751
 6 -5.20444800900090 -6.94799665296530  0.50625245504550
 6  2.21217219041904 -4.87787890809081  0.66379033343334
 6  3.45964049904991 -4.11581174207421  0.99330723052305
 6  4.05514490469047 -3.25537840794079  0.12140577557756
 6  3.67296163506351 -2.97128206950695 -1.32743224772477
 6  5.22404883068307 -2.49317436503650  0.55218901770177
 6  6.56823169446945 -2.79665259045905 -0.00394892749275
 6  7.75524084768477 -1.84934428992899  0.44034972547255
 6  9.11906272757276 -2.04967980158016 -0.17141492399240
 6  9.62819920162016 -3.45572621302130  0.26236277857786
 6  10.10735131423142 -1.00709094649465  0.38504101960196
 6  11.40348765116512 -0.89455906280628 -0.41350011621162
 6  12.33644133273327  0.19398402590259  0.10673752135214
 6  13.58481093689369  0.34556942684268 -0.60729549274927
 6  14.56719501850185 -0.81646104870487 -0.50060421132113
 6  14.24321026062606  1.75203137473747 -0.21499075387539
 6  15.50213440384038  2.08360638883888 -1.01210620562056
 6  16.01208379277928  3.54441919471947 -0.62382299549955
 6  17.37553280238024  3.97845568716872 -1.16706064126413
 6  17.29929251895189  3.96755164686469 -2.71745396959696
 6  17.68482788888889  5.25722098739874 -0.61772123102310
 1 -2.82726844964496  1.28693296869687  3.55543601200120
 1 -6.31210918971897  5.54927030743074  0.71281027272727
 1 -8.75033544074407  1.30936123902390 -3.16292177097710
 1 -3.67541860666067 -3.16456177157716  1.97413547434743
 1 -1.93430055395540 -1.20682834443444  2.55949722582258
 1 -3.23065284438444 -2.73081624282428  4.36659020302030
 1 -3.32903369606961 -0.93945384978498  4.74781681148115
 1 -4.69068157985799 -2.15167424832483  3.86254020452045
 1 -2.26024133783378 -3.56964648194819 -0.08602922672267
 1 -1.62851068346835 -1.74065318161816  0.21352947454745
 1 -0.71097653115312 -2.84555585118512  2.28005222392239
 1 -1.37883260486049 -4.32461959315932  1.64151594959496
 1 -1.58990910471047  3.82942246664666  4.15075098479848
 1 -2.86755774587459  4.88575578157816  4.52813907160716
 1 -3.10691368636864  3.20436143364336  5.22857786378638
 1 -5.39623268716872  6.69052324672467  2.26692201360136
 1 -10.17589672317232  2.68802946004600 -3.09830308200820
 1 -10.29019981788179  4.39660350445044 -2.80216050675068
 1 -9.59715951575158  4.28932734673467 -5.27590279257926
 1 -8.12853236263626  4.97500724612461 -4.40390034503450
 1 -8.16166601560156  3.18442780158016 -4.81469139393939
 1 -8.44191178077808 -1.18110865376538 -4.51476247454745
 1 -8.45501648464847 -2.80799420452045 -3.98051068806881
 1 -9.55345542504251 -1.48347517091709 -3.05345225192519
 1 -4.07445480288029 -3.79983481008101 -1.18616190309031
 1  2.40690182318232 -5.97169511251125  0.88157411431143
 1  1.96277702110211 -4.93343031913191 -0.45347879747975
 1  3.92575469776978 -4.05314459625963  1.88031303890389
 1  2.68250323702370 -3.17859348044804 -1.63391593259326
 1  3.95555016831683 -1.87247080638064 -1.61064353485349
 1  4.44524669866987 -3.44558828802880 -1.98887781368137
 1  5.09848988988899 -1.40904732873287  0.43721560506051
 1  5.41020954825483 -2.63904553695369  1.65201008130813
 1  6.77302482918292 -3.85399859195920  0.17513539753975
 1  6.41673183358336 -2.78080568956896 -1.18176877237724
 1  7.26131506280628 -0.84568789388939  0.24852209770977
 1  7.57203930683068 -1.95951253435344  1.57792217751775
 1  9.07411152045204 -2.02971124632463 -1.37098043614362
 1  9.01794631333133 -4.31379015041504  0.05269147674768
 1  10.74969431023102 -3.54436863896390 -0.07665777927793
 1  9.80589965136514 -3.37302839433943  1.43636407910791
 1  9.77939709030903 -0.20210448424843  0.21773713751375
 1  10.44912501000100 -1.30006654055406  1.40585012501250
 1  11.99013415471547 -1.66878691059106 -0.31118549174917
 1  11.05862194889489 -0.57719062396240 -1.35160649424943
 1  11.79988102160216  1.21302573177318  0.28117856265627
 1  12.41712653595359 -0.01756056465647  1.29090737093709
 1  13.39188598929893  0.39430386268627 -1.74660689938994
 1  14.76865620392039 -0.71285949864986  0.51852753275328
 1  13.97899347034704 -1.73097211351135 -0.83136945844584
 1  15.29199018741874 -0.77315051325133 -1.28286517901790
 1  13.57810600480048  2.44456907600760 -0.21324311201120
 1  14.47246394669467  1.64237452665267  0.88644585848585
 1  16.51854351015102  1.60250886358636 -0.79459595029503
 1  15.45294087748775  1.89948386118612 -2.18254963466347
 1  15.14998640324032  4.27847322532253 -0.97554955305531
 1  15.99616238633864  3.66172281368137  0.57606750715072
 1  18.10620430183018  3.35419691089109 -0.59081816141614
 1  16.50660138053805  4.70085661456146 -2.80582294209421
 1  18.26372229572958  4.22000151345135 -3.28232283738374
 1  16.90815101530153  3.14630570057006 -3.22198023262326
 1  18.26645269246924  5.22161337883788  0.42514417861786
 1  18.32876039833983  5.76771092329233 -1.34792170657066
 1  16.68966051695169  5.90132963606361 -0.53900796209621
 1 -4.79552485388539 -7.68457789088909 -0.21454499219922
 1 -6.24100853115312 -7.20039712631263  0.59782328982898
 1 -4.74079224782478 -6.72690426602660  1.36892134873487
 8 -7.81732932453245  6.81644814561456 -0.45694347834783
 1 -8.75892418951895  6.47961360626063 -2.21810749354936

