%nproc=4
%Mem=4GB
# td=(NStates=1) iop(3/107=0140000000,3/108=0140000000) iop(3/107=0140000000,3/108=0140000000) CAM-B3LYP/6-31G(d,p) 

TD

0 1
12 -5.61086259285929  1.16845171947195  0.19864847004700
 6 -4.99596998419842 -2.11543000630063 -0.34105097189719
 6 -3.33933272237224  1.17436772157216  2.80928630193019
 6 -6.26584538023802  4.50958422262226  0.77178738753875
 6 -7.84907067416742  1.22187303800380 -2.41486916041604
 7 -4.39111336463646 -0.37602579437944  1.01514285308531
 6 -4.22383591109111 -1.60220392199220  0.58415076467647
 6 -3.18864198869887 -2.26193949674967  1.42981734543454
 6 -2.89908307930793 -1.35917880878088  2.61882843894389
 6 -3.55171259865987 -0.08051067876788  2.01431601680168
 6 -3.57680071947195 -1.91328476987699  3.85704840424042
 6 -1.88104329752975 -2.63775118441844  0.73397870337034
 6 -1.02182382588259 -3.59660724132413  1.42693628162816
 6  0.27025212571257 -4.00388422912291  0.69356755145515
 8  0.54560462476248 -3.55321263486349 -0.35208144234423
 8  0.99899674537454 -4.88239785708571  1.38413302060206
 7 -4.91928274457446  2.55444482138214  1.52067229892989
 6 -4.04488657845785  2.44766218791879  2.50336093939394
 6 -3.74841434513451  3.64042254445445  3.17166772297230
 6 -4.53718427112711  4.59997152545255  2.56549582088209
 6 -5.31780788498850  3.92600069526953  1.52289838213821
 6 -2.96679204230423  3.83120049584958  4.43700789018902
 6 -4.45847237783778  6.02071949244924  2.87159666446645
 8 -3.84705475347535  6.54670255825582  3.88351225112511
 7 -6.84084788468847  2.63793368916892 -0.64628628492849
 6 -6.98701141594159  3.92427204440444 -0.29362105080508
 6 -7.91123631003100  4.61057778257826 -1.12692680218022
 6 -8.39490894419442  3.69833676357636 -2.12358130253025
 6 -7.64104299479948  2.45280128892889 -1.80720666716672
 6 -8.39667265816582  5.99533944334433 -1.03598310711071
 6 -9.35544990829083  3.90184058225823 -3.24139877267727
 6 -8.49108056175618  4.20608875507551 -4.56487289128913
 7 -6.25183360236024 -0.07523254095410 -1.14262935493549
 6 -7.17478700830083  0.07387131853185 -2.15289950065007
 6 -7.40021752895290 -1.24100580418042 -2.85584810741074
 6 -6.61037058585859 -2.16278585038504 -2.08767493319332
 6 -5.88357677307731 -1.39388295339534 -1.15692182258226
 6 -8.25598105590559 -1.66783690969097 -3.93343023922392
 6 -6.21799546664666 -3.41068665256526 -1.97845140024002
 8 -6.45550994649465 -4.41919961836184 -2.68087435253525
 6 -5.04946350845085 -3.47916596919692 -0.89140145994599
 6 -5.35995347274727 -4.64830027112711  0.16280995279528
 8 -5.92242801440144 -4.48946795489549  1.23778014141414
 8 -5.00807050525052 -5.86227742414241 -0.34871801640164
 6 -5.40097766196620 -6.93202505580558  0.47088891869187
 6  2.33715468866887 -5.25392651285129  0.74060801520152
 6  3.33937847284728 -4.22635279617962  1.05583348314831
 6  3.98644803500350 -3.47059993009301  0.22678631363136
 6  3.75803014191419 -3.30546548784878 -1.22214171867187
 6  5.03221964776478 -2.39090413801380  0.76684048284828
 6  6.48583345464546 -2.65962888808881  0.16276774417442
 6  7.64845016861686 -1.86534589008901  0.69701539203920
 6  8.93337415871587 -2.01763659725973 -0.00608839133913
 6  9.58121450315032 -3.35621626202620  0.24878142044204
 6  9.95142572167217 -0.79640987838784  0.49890240574057
 6  11.19429673207321 -0.83260286718672 -0.30811957815782
 6  12.11351904050405  0.36099072657266  0.11935878347835
 6  13.41927438323832  0.46748161806181 -0.66127089028903
 6  14.30465876487649 -0.73307270987099 -0.41929608050805
 6  14.14007994759476  1.72702887448745 -0.16806606140614
 6  15.39542373277328  2.14313234143414 -1.01797679267927
 6  15.93095567996800  3.54201895469547 -0.74455506870687
 6  17.18268351745175  3.97340518211821 -1.48827276247625
 6  17.05086767646765  4.29485437713771 -3.04439666386639
 6  17.82297170327033  5.31582684798480 -0.92347180608061
 1 -2.72976869966997  1.28044231963196  3.66233670207021
 1 -6.43880185898590  5.51120650105011  0.80929992169217
 1 -8.68127853505350  1.22780308320832 -3.03354883368337
 1 -3.61048211301130 -3.25083039843984  1.84574263506351
 1 -1.84196132003200 -1.38535619721972  2.67988926502650
 1 -3.12258203730373 -3.11789495069507  3.86572011601160
 1 -3.52500329302930 -1.36106601100110  4.75060709050905
 1 -4.64799731143114 -2.09679876077608  3.76217016751675
 1 -2.19244455815581 -2.94191370867087 -0.28148877267727
 1 -1.32293012541254 -1.79349846614661  0.47149527112711
 1 -0.79985541904190 -3.08053934953495  2.24976919561956
 1 -1.38548326992699 -4.46431356255626  1.73365516351635
 1 -1.66232634643464  3.35152467686769  4.36514242394239
 1 -3.01439242934293  4.91452865886589  4.60492675037504
 1 -3.54449744474447  3.20950194769477  5.26693169916992
 1 -4.94883794769477  6.78744293869387  2.28147346874687
 1 -9.90808994249425  3.01504216131613 -3.15710896259626
 1 -10.07170796869687  4.65626947104710 -2.87570786148615
 1 -9.22474227402740  4.29675808980898 -5.43712891519152
 1 -8.01683119251925  5.16102584798480 -4.36890684568457
 1 -7.58648849784978  3.48422778157816 -4.52849277407741
 1 -8.01042863246325 -1.10134067696770 -4.89889088738874
 1 -7.97321830483048 -2.75239864496450 -4.17734037103710
 1 -9.32314239373937 -1.61253807720772 -3.73984089078908
 1 -4.00051740914091 -3.81714654125413 -1.38556184308431
 1  2.46054718771877 -6.20262820582058  1.01355731263126
 1  1.95324606800680 -5.35293226932693 -0.33677712731273
 1  3.79626174847485 -4.25459474127413  2.16991199879988
 1  2.76717170387039 -3.81907752885289 -1.38988152915292
 1  3.81526613991399 -2.24205776507651 -1.41324379487949
 1  4.60881305530553 -3.65162889208921 -1.75166409230923
 1  4.77014705560556 -1.56867329132913  0.42811469496950
 1  5.10631915921592 -2.38149978237824  1.79591447174717
 1  6.74472199889989 -3.60501369346935  0.33035091909191
 1  6.39174933533353 -2.48811642064206 -0.87558815431543
 1  7.35572450375038 -0.70756408150815  0.75282252775277
 1  7.82436453935394 -1.96690327342734  1.66043042834283
 1  8.74874898419842 -1.77278555375538 -1.01690502860286
 1  8.80825534423442 -4.18542731413141  0.04280048764876
 1  10.51773111391139 -3.42028623072307 -0.34962507600760
 1  9.61475053645364 -3.41336242774277  1.35546598929893
 1  9.38500765136514  0.06044177037704  0.44487985178518
 1  10.06424652215222 -0.88570510441044  1.54540408040804
 1  11.76823196449645 -1.74964499639964 -0.17300167336734
 1  11.10359644634463 -0.71829473437344 -1.51390272387239
 1  11.40842187568757  1.25806023522352 -0.08456801200120
 1  12.19025384868487  0.18034922632263  1.30713899409941
 1  13.30179698039804  0.34891932423242 -1.78776101480148
 1  14.61182052035204 -0.77716592929293  0.67513319331933
 1  14.02621819281928 -1.68876789308931 -0.79204552605261
 1  15.17819880828083 -0.83554675287529 -0.99609650215021
 1  13.45863405760576  2.47278189728973 -0.37968975667567
 1  14.66859355965597  1.51531182038204  0.75874308820882
 1  16.12786444224422  1.37749636233623 -0.74082057275727
 1  15.40078566196620  1.63945785858586 -2.21930331003100
 1  15.12982438703870  4.28998437643764 -0.87490948904890
 1  16.03420619071907  3.34105074647465  0.32545244564456
 1  18.05461914331433  3.30296178737874 -1.40209928952895
 1  16.00960168056805  4.85042157105711 -3.09085144494449
 1  17.93412933643365  4.74787430073007 -3.40242484758476
 1  16.85109530973098  3.19497056705671 -3.45415344994499
 1  17.63018906610661  5.13634485198520  0.28540020422042
 1  18.91553907620762  5.54484863706371 -1.27303421782178
 1  17.29013056395640  6.33737324042404 -1.03714777607761
 1 -5.15210051145115 -7.68833826692669 -0.24751828952895
 1 -6.65923035333533 -6.92702978957896  0.51361486898690
 1 -5.21490965956596 -6.92365394099410  1.55247970457046
 8 -7.75489308090809  6.92458895969597 -0.51840962496250
 1 -9.18653695079508  5.96558220312031 -1.76888257105711

