%nproc=4
%Mem=2GB
# td=(NStates=1) iop(3/107=0140000000,3/108=0140000000) iop(3/107=0140000000,3/108=0140000000) CAM-B3LYP/6-31G(d,p) 

TD

0 1
12 -6.57562013411341  0.54973411751175  0.19901752125213
 6 -4.34760186668667 -2.00358878067807  0.41540181718172
 6 -4.23418523392339  2.77768940204020  1.01178406000600
 6 -8.79261196589659  3.16944096819682 -0.27122662436244
 6 -9.29145724332433 -1.69924295389539 -0.52830288898890
 7 -4.55850092199220  0.38102750045005  0.71877090919092
 6 -3.88278554415442 -0.71569127592759  0.65710626602660
 6 -2.42246566516652 -0.52877463666367  0.99050111241124
 6 -2.31343130893089  0.91311145994599  1.14876703920392
 6 -3.85546180908091  1.46189627482748  0.92265704040404
 6 -1.89637592329233  1.15202699859986  2.65416997979798
 6 -1.54110285868587 -0.97049961336134 -0.23280195389539
 6 -0.18413653195320 -1.36308801540154  0.35751482498250
 6  0.90369144834483 -1.48959619651965 -0.93176134993499
 8  0.90601066916692 -0.68623123562356 -1.87346833703370
 8  1.86922720932093 -2.37154745334533 -0.49142406490649
 7 -6.53172491469147  2.54180455045505  0.29323307120712
 6 -5.41547210811081  3.30223886708671  0.64788108430843
 6 -5.72882709790979  4.68251793659366  0.84247911651165
 6 -7.09860057345735  4.91739783028303  0.36899348264826
 6 -7.69969167306731  3.47727653605361  0.17263209460946
 6 -4.68124304460446  6.00169760026003  1.04001166916692
 6 -7.75838740004000  6.21215813591359  0.37154667836784
 8 -7.34948886508651  7.24497611421142  0.56180403720372
 7 -8.57972152565257  0.73326418561856 -0.38700134923492
 6 -9.28135180758076  1.94967970327033 -0.63349440174017
 6 -10.67539416971697  1.62658252935294 -1.06601238243824
 6 -10.84978933643364  0.27107801220122 -1.07550840634063
 6 -9.51965362866287 -0.26725488868887 -0.68280035673567
 6 -11.60543731903190  2.61738793189319 -1.19542419321932
 6 -11.92938605910591 -0.46887044934493 -1.45500363406341
 6 -11.90437729982998 -0.70949311451145 -3.06491928662866
 7 -6.94539102200220 -1.40999356065607  0.02452980848085
 6 -7.92935559715972 -2.16220621732173 -0.45981917991799
 6 -7.64737232233223 -3.63707102950295 -0.28757976807681
 6 -6.30256587778778 -3.57441660256026  0.04469620902090
 6 -5.80048633733373 -2.14272308680868  0.15232141644164
 6 -8.63468199169917 -4.81765914371437 -0.61103391929193
 6 -5.09371557605761 -4.42559835793579  0.24357238293829
 8 -4.99451119981998 -5.61991252955296  0.11020152675268
 6 -3.82860658605861 -3.48932949214921  0.56588123532353
 6 -3.47729124002400 -3.75785196069607  1.92029174217422
 8 -4.22299753985398 -4.10784751955195  2.89861853165317
 8 -2.13272494739474 -3.47477378267827  2.02926286548655
 6 -1.64198272037204 -3.86099118921892  3.02582700790079
 6  2.97172906570657 -2.61013619051905 -1.34725596969697
 6  4.15538930633063 -1.78691569266927 -1.00109564186419
 6  5.04602535793579 -1.33591046244624 -1.89256545814581
 6  5.29759374317432 -1.89161229592959 -3.21336831903190
 6  5.91063488808881 -0.27038469136914 -1.43296985548555
 6  7.30303899789979 -0.93301908400840 -0.97777451475148
 6  8.29667222752275  0.05234086868687 -0.37733621412141
 6  9.66874996439644 -0.53457037733773  0.11323301760176
 6  9.33563107940794 -1.27943675837584  1.59783415221522
 6  10.87807013701370  0.52169702390239  0.20330516891689
 6  12.23737900840084 -0.00133882668267  0.36225453665367
 6  13.42017355995599  0.98734600930093  0.49897279567957
 6  14.58587492269227  0.36382966106611  0.49859452155216
 6  14.94376936503650 -0.17310959145915  1.73308323232323
 6  15.57567719611961  1.46038094009401 -0.06269306400640
 6  17.13776325442544  0.94485971037104  0.07063018911891
 6  17.98239778717872  2.07645483668367 -0.32132227902790
 6  19.38464066516651  1.68211670647065 -0.48208829252925
 6  19.69352915421542  0.72804823512351 -1.65031082228223
 6  20.46863403230323  2.68896031403140 -0.61289638553855
 1 -3.42225286358636  3.56872812381238  1.38077747944794
 1 -9.64227821032103  3.92167125222522 -0.26055968986899
 1 -10.29729222082208 -2.60889128842884 -0.39541236713671
 1 -2.13276579337934 -1.10805842364236  1.83491353965396
 1 -1.80813015161516  1.41122159835984  0.57956440984098
 1 -1.20076145984598  0.64963327772777  3.09223993509351
 1 -1.80628880278028  2.17770634703470  2.90428654645465
 1 -2.81832416491649  1.11412929822982  3.46008187728773
 1 -1.89392841314131 -1.64776604960496 -0.84556234303430
 1 -1.40722589158916 -0.38441991489149 -1.09164895569557
 1  0.29602760106011 -0.31408284158416  0.92444831003100
 1 -0.23175689548955 -2.13522985678568  0.98055828792879
 1 -3.90663519391939  5.74816264416442  0.39965492319232
 1 -5.18998927952795  6.94401707760776  1.05973287938794
 1 -4.13188421662166  6.13050201120112  2.05506327862786
 1 -8.61625463956396  6.32337744694469 -0.05340171597160
 1 -11.92601215481548 -1.59718058555856 -1.10839526672667
 1 -12.94516073107311  0.10333673347335 -1.04455209160916
 1 -12.53466128922893 -1.52647476287629 -3.14160127722772
 1 -12.34290125392539  0.54514193569357 -3.56116828632863
 1 -10.98616544094410 -0.90319363636364 -3.55395200260026
 1 -8.99649883318332 -4.86738329392939 -1.50909313731373
 1 -8.07712292689269 -5.92847285988599 -0.05189484138414
 1 -9.60793807380738 -4.83717567876788  0.02019662916292
 1 -2.96719630103010 -3.77438116301630 -0.36021432823282
 1  2.90987260266027 -3.91699897369737 -1.32968868596860
 1  2.58001229002900 -2.50553646864687 -2.41189142444244
 1  4.41558888658866 -1.49321206960696 -0.07615401380138
 1  4.56996005300530 -1.21573504600460 -4.05654576957696
 1  6.54566814521452 -1.41859053445345 -3.45921714561456
 1  5.16255008240824 -3.00871348564856 -3.07604178797880
 1  6.26468689058906  0.29337467486749 -2.21980459765977
 1  5.35308041744174  0.38759430723072 -0.80202446584658
 1  7.06189736863686 -1.67966616371637 -0.33065134353435
 1  7.86847224562456 -1.41948073837384 -2.07184666056606
 1  8.57761989338934  0.77432802760276 -1.16542932823282
 1  8.07947644574458  0.67270245844584  0.47082279067907
 1  10.07894034113411 -1.31592903660366 -0.38725588318832
 1  8.60169241354136 -2.04391320702070  1.52259061986199
 1  10.21990806020602 -1.73694757595760  1.86493838523852
 1  8.93305651725173 -0.59272049444944  2.52905421052105
 1  10.81082472027203  0.90804356425643 -0.73600077167717
 1  10.75430517711771  1.22358123372337  1.06197007730773
 1  12.24426196839684 -0.75064750425042  1.12741642494249
 1  12.57019917391739 -0.69369759035904 -0.46420941844184
 1  13.53255812581258  1.60556010101010 -0.24879378397840
 1  13.31378342314231  1.50446469776978  1.37727351675168
 1  14.45524695049505 -0.45423293929393 -0.38202639383938
 1  15.04654455435544  0.76445684118412  2.19473224622462
 1  13.91755902940294 -0.68752642454245  2.09784728282828
 1  15.53676070917092 -1.11362494559456  1.85428190589059
 1  15.23994512941294  2.03282327572757 -1.05819579427943
 1  15.24119815241524  2.41947148264826  0.93097142034203
 1  17.34676599169917  0.39893306390639  1.23522370907091
 1  16.99754727892789 -0.27978980978098 -0.34017539493949
 1  17.53601860896090  2.53250979877988 -1.08947193549355
 1  18.18365836193620  2.92890679757976  0.38509518001800
 1  19.87114967616762  1.09796264246425  0.27688103890389
 1  19.40958927692769  1.36423147274727 -2.78564068926893
 1  20.89375366536654  0.15427362556256 -1.70263439683968
 1  19.24030675767577  0.07842012361236 -1.96308438313831
 1  20.87514429302930  2.95427500660066  0.23785453905390
 1  21.28181592189219  2.28780536323632 -1.22433514851485
 1  19.80836748964896  3.32007949514952 -1.14491928822882
 1 -0.63401902700270 -4.02425517491749  2.78215656365637
 1 -2.20578025902590 -4.68506578027803  3.46152678927893
 1 -1.70998501180118 -3.20612909000900  3.71344549774977
 8 -11.57994636893689  3.85323012221222 -1.14001581528153
 1 -12.55737624912491  2.28053929402940 -1.72593319831983

