%nproc=4
%Mem=2GB
# td=(NStates=1) iop(3/107=0140000000,3/108=0140000000) iop(3/107=0140000000,3/108=0140000000) CAM-B3LYP/6-31G(d,p) 

TD

0 1
12 -6.83245581768177  0.56087523162316  0.14773239273927
 6 -4.61135824232423 -2.04488291009101  0.46982725972597
 6 -4.39426124152415  2.74019565266527  1.02402528412841
 6 -8.98982168686869  3.16034005810581 -0.26560606230623
 6 -9.36580467806781 -1.71712474207421 -0.67927798649865
 7 -4.80257532943294  0.39448884658466  0.73363239533953
 6 -4.04750201580158 -0.81123082988299  0.67168772417242
 6 -2.59383280188019 -0.59322108130813  0.98376043834383
 6 -2.57391735753575  1.00391053985399  1.19798196069607
 6 -3.91789805270527  1.40228031323132  0.98714348904891
 6 -2.22643892959296  1.06201799769977  2.78079264206421
 6 -1.54780352875288 -0.85558812221222 -0.17175584928493
 6 -0.15179329762976 -1.30317202380238  0.32501157465747
 6  0.83226430563056 -1.14293153005300 -0.66962513631363
 8  1.07705777387739 -0.58046065856586 -1.73687467766777
 8  1.82861314791479 -2.02544284288429 -0.37191211371137
 7 -6.66706844904490  2.49362973297330  0.33366711461146
 6 -5.62404296519652  3.30656930013001  0.71419771597160
 6 -5.82952716791679  4.76165585038504  0.62596746534653
 6 -7.14207492089209  4.88921501200120  0.22056864016402
 6 -7.81137284118412  3.46727553595360  0.05504033543354
 6 -4.89949486978698  5.88007543804380  0.96688435643564
 6 -7.91067262856286  6.04845176527653  0.08913843754375
 8 -7.44916883308331  7.14099571617162  0.34838269506951
 7 -8.93970752425242  0.70124098329833 -0.41234388348835
 6 -9.52022569496950  1.87689242454245 -0.51331238353835
 6 -10.91349798009801  1.55668553965397 -0.87903368456846
 6 -11.07169152665266  0.22181308570857 -0.98438929442944
 6 -9.86479814311431 -0.35693385658566 -0.71939401610161
 6 -11.94392116741674  2.52231842494249 -0.84927957875788
 6 -12.33798691919192 -0.46665022732273 -1.43636176987699
 6 -12.33198006010601 -0.98396056125613 -2.91721451615162
 7 -6.99985646854685 -1.38009057035704 -0.30502314681468
 6 -8.06977963956396 -2.27111710841084 -0.40903410141014
 6 -7.66349393449345 -3.70185750815082 -0.50239124922492
 6 -6.48252387358736 -3.63682284318432 -0.03645190579058
 6 -5.99410569926993 -2.18682749724973  0.00402658695870
 6 -8.48270679417942 -4.85605298309831 -0.83667648354835
 6 -5.24638084258426 -4.51026682478248  0.25294332003200
 8 -4.87132888158816 -5.69997053535354  0.28703921052105
 6 -3.98922264766477 -3.25184574377438  0.52924757195720
 6 -3.26140965186519 -3.57953412891289  1.80304001700170
 8 -3.70506574667467 -3.72550928572857  2.86703537333733
 8 -1.73510518541854 -3.69097540284028  1.75751569076908
 6 -1.06540506260626 -3.96141123122312  2.91257568276828
 6  2.95941783458346 -2.27039221612161 -1.11763300740074
 6  4.04538830623062 -1.44299130023002 -0.65367089938994
 6  4.93100385578558 -0.96858372977298 -1.57807400900090
 6  5.21755573937394 -1.43941707640764 -2.96081306350635
 6  6.03625745034504  0.10831317841784 -1.11628818731873
 6  7.49792848684868 -0.52558834093409 -1.01532827012701
 6  8.57693025332533  0.33395903050305 -0.44372285278528
 6  9.80486357575758 -0.43220014031403 -0.04814312001200
 6  9.83207072337234 -1.10367918261826  1.31777614641464
 6  11.01839416941694  0.62597745194519 -0.17335249684969
 6  12.38120339083908  0.08564987218722  0.07016532773277
 6  13.43608515111511  1.08640591529153  0.11149404780478
 6  14.86792312751275  0.29428270637064  0.42292695479548
 6  14.90852584068407 -0.35415769626963  2.04268419241924
 6  15.96364599299930  1.27053195519552  0.28264146944694
 6  17.29062854095410  0.55778100250025  0.10481360746075
 6  18.44048359575958  1.71096828802880 -0.07247739453945
 6  19.82428462956296  0.98756725152515 -0.48506859055906
 6  19.94945474677468  0.41711714201420 -1.87461325252525
 6  21.04026119501950  2.09841125912591 -0.43248834473447
 1 -3.76509714801480  3.44720597159716  1.58820822252225
 1 -9.75849983248325  4.11015010011001 -0.44617825172517
 1 -10.03042553415342 -2.64870526982698 -0.82910573647365
 1 -2.30357287408741 -1.26943456125613  1.66600664896490
 1 -1.82308164676468  1.34863533973397  0.44703115651565
 1 -1.13401478517852  0.63113142754276  3.40044075517552
 1 -2.20734890879088  2.25933450985098  2.99279539733973
 1 -3.27421975447545  0.60551843714371  3.30901677077708
 1 -2.02156117641764 -1.85551682468247 -0.64733252005201
 1 -1.41917708670867  0.03089161626163 -0.78351814261426
 1  0.17495549384938 -0.62154358765877  1.44538040324032
 1 -0.31009472927293 -2.21851818561856  0.54901513361336
 1 -3.79725425582558  5.47058488638864  0.56250120782078
 1 -4.93318359895990  6.87656033193319  0.39771667776778
 1 -4.90584161236124  5.82464142514251  1.98898667096710
 1 -8.89175218931893  6.22091720092009 -0.28680505630563
 1 -12.62965251885188 -1.42285315281528 -0.59160358755876
 1 -13.23670988598860  0.07309370917092 -1.25564320072007
 1 -13.21848967206721 -1.99295141054105 -3.00230734783478
 1 -12.09751671547155  0.10462788428843 -3.57264943444344
 1 -11.33833065746575 -1.50263358035804 -3.12019862726273
 1 -9.14069325262526 -4.83012956855686 -1.86505873387339
 1 -7.47443265786579 -5.82397240984098 -0.92090174207421
 1 -9.01779905990599 -5.40024198539854  0.17683229272927
 1 -3.33434301570157 -3.26582030693069 -0.34050235703570
 1  2.97771938733873 -3.42178945274527 -0.88817453455346
 1  2.89366365516552 -2.23542945794579 -2.37883811911191
 1  3.93247057475748 -1.00415316371637  0.55219882148215
 1  4.38088114511451 -1.51957543004300 -3.82324243924392
 1  6.30400397879788 -1.03093176857686 -3.41338256215622
 1  5.79035286268627 -2.38716133043304 -2.97919210301030
 1  6.50154057595760  1.12798813621362 -1.92028464566457
 1  5.55657076647665  0.86773232103210 -0.07483174657466
 1  7.18807998689869 -1.26352454955496 -0.28577685608561
 1  7.79003440184018 -0.95298408870887 -2.20967044294429
 1  8.90226235763576  1.24909550435044 -1.41279406470647
 1  8.35461395949595  1.11143633183318  0.53294900330033
 1  9.80015246234623 -1.32181962566257 -0.94363152075208
 1  8.78321056535654 -1.88505732143214  1.19622798359836
 1  10.52156822622262 -2.01361524272427  1.62762465386539
 1  9.44851806340634 -0.15415663806381  1.99606091119112
 1  10.89164280208021  1.18507126702670 -0.94604177577758
 1  10.77513726032603  1.73544241984198  0.58925280558056
 1  12.51104864706471 -0.39726216571657  1.40863454675468
 1  12.88747090109011 -0.46700492109211 -0.82674567206721
 1  13.15000987098710  1.72664220922092 -0.61443034763476
 1  13.28983102790279  1.76503075437544  1.05141093049305
 1  15.01525295109511 -0.43373088908891 -0.32146033723372
 1  15.02441234113411  0.63241363686369  2.74385715871587
 1  14.09103637713771 -1.12814048594859  2.27196469456946
 1  15.88658569166917 -0.65310889398940  2.17560403810381
 1  15.67474860976098  1.88694868826883 -0.77756773147315
 1  15.85169920252025  1.90754028952895  1.17698602180218
 1  17.45613692879288 -0.08357518691869  1.08002818951895
 1  17.29894741894189 -0.20659249004901 -0.86907828522852
 1  18.35080008710871  2.60575712351235 -1.12186517481748
 1  18.41666166226623  2.47545145204520  0.59706637713771
 1  20.13331589278928  0.00705355155516  0.18919227002700
 1  19.46975529352935  1.07041209080908 -2.57758988418842
 1  20.84811910191019  0.06990518871887 -2.30919505290529
 1  19.22217494449445 -0.09889760816082 -1.95168324302430
 1  21.07666444504450  2.33773335243524  0.75071582518252
 1  22.03297103740374  1.60056663936394 -0.45446816181618
 1  20.67810446334633  2.94275176237624 -1.20657545384538
 1 -0.28160378547855 -4.34607735713571  2.21050939893989
 1 -1.30179986098610 -4.43073034673467  3.85768640524052
 1 -0.77063107640764 -3.18543702080208  3.06541069426943
 8 -11.44972334663466  3.65235003420342 -0.84607642134213
 1 -13.08983949544955  2.45391663176318 -0.77490809580958

