%nproc=4
%Mem=2GB
# td=(NStates=1) iop(3/107=0140000000,3/108=0140000000) iop(3/107=0140000000,3/108=0140000000) CAM-B3LYP/6-31G(d,p) 

TD

0 1
12 -6.81869444154415  0.60926007010701  0.12657027652765
 6 -4.55063216971697 -1.97629605140514  0.37483776077608
 6 -4.08792060746075  2.74128576167617  0.77530041164116
 6 -9.02648535323532  3.12691671577158 -0.18694819651965
 6 -9.33690178777878 -1.77736076567657 -0.69429948864886
 7 -4.86558163006301  0.38419781748175  0.58305733783378
 6 -3.91346861246125 -0.71788149494950  0.53709426482648
 6 -2.45678909750975 -0.48114987418742  0.80984304660466
 6 -2.47693765956596  1.07740788958896  1.09202136463646
 6 -3.90582684558456  1.42463254845485  0.86412118681868
 6 -2.05145143084308  1.45820761666167  2.48180274307431
 6 -1.61711045944594 -1.00033259665967 -0.54466314001400
 6 -0.14986310461046 -1.30337204380438  0.07157623112311
 6  0.69214029322932 -1.35407264416442 -1.04056223002300
 8  0.51521158925893 -1.12495510801080 -2.21405239543954
 8  1.97476776337634 -2.01102140074007 -0.50709563206321
 7 -6.54595633783378  2.65632600260026  0.33492724062406
 6 -5.47560812171217  3.36134477767777  0.52240853705371
 6 -5.88851306650665  4.82296198099810  0.62299716831683
 6 -7.08795950935094  4.88340443094309  0.26645322862286
 6 -7.50484218811881  3.53178198659866  0.06515134653465
 6 -4.97123204350435  5.81756918741874  0.72349001700170
 6 -8.08760032133213  6.10290721082108  0.53988351205120
 8 -7.65975989218922  7.13047466406641  0.56318417521752
 7 -8.78353190669067  0.77902876207621 -0.37142979207921
 6 -9.63435710811081  1.89550428572857 -0.46230728302830
 6 -10.98735536583659  1.52578244934493 -0.52321810301030
 6 -10.82431678917892  0.10474137853785 -0.76728758425843
 6 -9.64897656095610 -0.39068723192319 -0.52301437813781
 6 -12.02319909520952  2.42340853395340 -0.73580823162316
 6 -12.22460558105811 -0.80779434173417 -0.94844297799780
 6 -12.56548341044105 -0.99066123132313 -2.51312410711071
 7 -6.88471495439544 -1.37171973327333 -0.16430907540754
 6 -8.11192385398540 -2.22549254595460 -0.35131832983298
 6 -7.54394197929793 -3.66364368676868 -0.39816082618262
 6 -6.34432005320532 -3.52600176107611 -0.00993925452545
 6 -5.94582087078708 -2.15071388588859  0.11791797609761
 6 -8.50149867336734 -4.77219459725973 -0.44281709760976
 6 -5.03743994849485 -4.35226102420242  0.09589761546155
 8 -4.83517526622662 -5.53343388168817 -0.09140863426343
 6 -3.93989771517152 -3.37282784198420  0.35363001020102
 6 -3.40696420732073 -3.59427560306031  1.83470318331833
 8 -4.04409965006501 -3.75821255605561  2.82526119591959
 8 -1.80311198609861 -3.56493279857986  1.62425236443644
 6 -1.12900142224222 -3.77974306440644  2.92456688188819
 6  3.09489138193819 -2.15136031293129 -1.47685892999300
 6  4.11088485588559 -1.18847584868487 -1.18552408470847
 6  5.35356611201120 -1.05174204560456 -1.99065526712671
 6  5.54681866566657 -1.86667980268027 -3.04654163636364
 6  6.16940076467647 -0.11477913081308 -1.34386094459446
 6  7.39680837483748 -0.60075585768577 -0.76737347464746
 6  8.71720428072807  0.22698833343334 -0.38093657415742
 6  9.90861395079508 -0.53211013131313  0.24062575687569
 6  9.46873438973897 -0.82070088478848  1.68118248704871
 6  11.15376770677068  0.48608346254625  0.09871470987099
 6  12.39674494499450 -0.18475716851685  0.32939125032503
 6  13.48852039463946  0.81840911561156  0.38418131653165
 6  14.86638297349735  0.19076235433543  0.56109077117712
 6  15.02782777087709 -0.21502378287829  1.97300722472247
 6  16.03951357975798  1.10554545654565  0.42253545884588
 6  17.27594707280728  0.77656288068807  0.21808493459346
 6  18.32243179057906  1.76174336553655 -0.17943809060906
 6  19.74973717481748  1.25467396219622 -0.50830091379138
 6  19.73006280758076  0.62393782408241 -1.73746953815382
 6  20.70649781868187  2.27740915891589 -0.18684378027803
 1 -3.70001063936394  3.29575082608261  1.08013741544154
 1 -9.50491447394739  3.95190427552755 -0.53978761266127
 1 -9.99805229682968 -2.32995339463946 -0.95519834573457
 1 -2.14198671547155 -0.96650426822682  1.67264731303130
 1 -1.72046138473847  0.96832730893089  0.24045049844984
 1 -1.19560094379438  0.65629394379438  2.88482919401940
 1 -1.75112328622862  2.49997857425742  2.54560067786779
 1 -2.74253658615862  0.95605349064906  3.20697656675668
 1 -1.96912593289329 -1.99073034603460 -1.09448723552355
 1 -1.40482565156516 -0.00622209510951 -1.17564735553555
 1 -0.02705470717072 -0.23823525682568  0.74310017521752
 1 -0.44033775357536 -2.15473180698070  1.00427065916592
 1 -4.50760529092909  6.10000782868287 -0.76650169246925
 1 -5.46169645024502  6.88958163406341  0.88337524362436
 1 -3.73359438763876  5.58665762676268  1.40865863816382
 1 -8.96803981808181  5.84225933513351  0.26187981218122
 1 -11.65960551415142 -1.89234010151015 -0.32094652185218
 1 -13.16178239323932 -0.41525512571257 -0.39683732013201
 1 -13.35351317441744 -1.73814592999300 -2.72807992509251
 1 -13.15241220502050 -0.16182876137614 -3.23976614611461
 1 -11.67642446684668 -1.32339565656566 -3.04796140354035
 1 -8.81415059835984 -5.12027858345835 -1.76808903690369
 1 -7.97247246184618 -5.86243625622562 -0.08983863576358
 1 -9.43015029502950 -4.42769473067307  0.28284289378938
 1 -3.38059764116412 -3.72430615551555 -0.60054836163616
 1  3.16738835423542 -3.23999127292729 -1.31859757685769
 1  2.45170945974597 -1.80343625862586 -2.31947218251825
 1  3.60621794949495 -0.41570431883188 -0.23791018941894
 1  4.64117717471747 -1.96995046754675 -3.87195731073107
 1  6.41148472687269 -1.41934060946095 -3.89924114801480
 1  5.85963979137914 -2.84405702000200 -2.82230641444144
 1  6.62212263416342  0.61822716011601 -2.03674629182918
 1  5.73944905430543  0.77180272807281 -0.58903316671667
 1  7.36980815971597 -1.15415361246125  0.25758748034803
 1  7.82481788018802 -1.34019280958096 -1.28991846774677
 1  9.04663679507951  0.72591318611861 -1.03865665096510
 1  8.25159365746575  0.86491167936794  0.02687839623962
 1  10.17596004310431 -1.72257970167017 -0.28627578517852
 1  8.95359760406041 -1.98334715041504  1.80594895569557
 1  10.86053212261226 -0.88479236043604  2.59455134653465
 1  8.56965017661766 -0.15126634903490  2.20354165926593
 1  11.07545118291829  0.98027078697870 -0.69156632823282
 1  11.02257200380038  1.22024089968997  0.66499037933793
 1  12.08189573177318 -0.67868030753075  1.12394607790779
 1  12.59302145614561 -1.21748996959696 -0.29792278977898
 1  13.53873874387439  1.69838938393839 -0.56342524712471
 1  13.45574761956196  1.62857710901090  1.16605239463946
 1  14.85857728352835 -0.57222473847385 -0.24692288348835
 1  14.73405330523052  0.52286268176818  2.44934770777078
 1  14.34865213871387 -1.02634030593059  2.09397689578958
 1  16.00607764086408 -0.35721930503050  2.30367684538454
 1  15.88686982188219  1.45083507690769 -0.50411038573857
 1  16.00553458605861  1.73177271277128  1.16577490069007
 1  17.54681599669967  0.31735490609061  0.76353654035403
 1  17.21248877307731  0.20787895709571 -0.48836021342134
 1  18.25675068216822  2.16615316311631 -0.94985797409741
 1  18.49169916601660  2.16340024692469  0.61398806930693
 1  19.68388094929493  0.67387023322332  0.15650900170017
 1  19.41655997399740  1.29887493709371 -2.29079120432043
 1  20.82022631263126  0.05188338653865 -2.02740687408741
 1  19.35528825582558 -0.33608132653265 -1.51022909760976
 1  20.92475925452545  2.24293387248725  0.47869862346235
 1  21.80505824612461  1.90165674837484 -0.62223493849385
 1  20.24612126502650  3.14800228742874 -0.79724452075208
 1  0.16328070297030 -4.13093584298430  2.27722607060706
 1 -1.63291297229723 -4.75102237593759  3.16089672627263
 1 -1.44643865716572 -2.72440091719172  3.73511766496650
 8 -11.86541491579158  3.71506630583058 -0.66096791049105
 1 -12.98022853435344  1.82048328842884 -0.83844444944494

