%nproc=4
%Mem=2GB
# td=(NStates=1) iop(3/107=0140000000,3/108=0140000000) iop(3/107=0140000000,3/108=0140000000) CAM-B3LYP/6-31G(d,p) 

TD

0 1
12 -6.77647021912191  0.52190133423342  0.18539615911591
 6 -4.50889799629963 -2.04392281408141  0.35522579957996
 6 -4.24694651005100  2.52644427752775  1.34332721432143
 6 -8.67044974967497  3.32023604770477 -0.62780228192819
 6 -9.46827492509251 -1.47579060866087 -0.50102016071607
 7 -4.69802487438744  0.21345074277428  0.55436446854685
 6 -4.05472273787379 -0.97897760456046  0.67618817421742
 6 -2.52227564616462 -0.70196195539554  1.12553461576158
 6 -2.41784174997500  0.75213536233623  1.51217337983798
 6 -3.90534679757976  1.24841492669267  1.06155092979298
 6 -2.15308159385939  0.98182997889789  2.98342290509051
 6 -1.51264001240124 -1.26368893229323  0.01745307160716
 6 -0.06397451575158 -1.25020672727273  0.39791886538654
 6  0.81949302850285 -1.43887112401240 -0.73995216901690
 8  0.85276534463446 -0.85065767826783 -1.81069205940594
 8  1.97202748934893 -2.26644694329433 -0.19157407990799
 7 -6.53033477567757  2.49213958395840  0.30538428632863
 6 -5.50014057495750  3.19356800000000  0.85616191239124
 6 -5.62970718591859  4.63647333213321  0.82141701030103
 6 -6.88207892129213  4.89257534803480  0.15832241554155
 6 -7.56680838473847  3.58455726412641 -0.09314448304830
 6 -4.78340326062606  5.53833126362636  1.54635230323032
 6 -7.69050061136114  6.11003792389239 -0.02030250655065
 8 -6.96230014621462  7.38953056965697 -0.16242838603860
 7 -8.69841339483948  0.77875873507351 -0.49621227032703
 6 -9.25332900530053  2.03922865816582 -0.61115216751675
 6 -10.66743337363736  1.76683655475548 -0.99636541774177
 6 -10.92087644514451  0.49245014941494 -1.06102695819582
 6 -9.66812847614761 -0.26013417661766 -0.71947402410241
 6 -11.69500627592759  2.72056824992499 -0.96386103690369
 6 -12.24842796329633 -0.40925448774877 -1.34648278197820
 6 -12.18005486758676 -0.79093125832583 -2.86061885658566
 7 -6.98286476937694 -1.37308987028703  0.00875823132313
 6 -8.20034269586959 -2.13860385708571 -0.47541073907391
 6 -7.83579116421642 -3.61968929132913 -0.35241625172517
 6 -6.47810343154315 -3.63248240914091 -0.11266952755276
 6 -6.00017630633063 -2.21261007550755  0.19246543084308
 6 -8.43386190969097 -4.94200157795780 -0.61848466436644
 6 -5.34178038253825 -4.47064286238624  0.07803582928293
 8 -5.01033278197820 -5.57819835813581  0.06081658825883
 6 -4.12554628002800 -3.49257981718172  0.58914356155616
 6 -3.59058256915692 -3.86157233273327  1.89535924892489
 8 -4.40470571067107 -4.25806254105411  2.86100477027703
 8 -2.04448612351235 -3.97177348264826  1.91316125532553
 6 -1.16561508360836 -4.22241733183318  3.15768019321932
 6  3.17154904770477 -2.40029520642064 -1.21106235033503
 6  4.02605637303730 -1.31411841294129 -0.86465199749975
 6  4.97165792119212 -0.74487135853585 -1.71323752535254
 6  5.03710769456946 -1.28830196489649 -3.18848583078308
 6  6.06855067966797  0.27787013411341 -1.36082264076408
 6  7.27084577857786 -0.29732551465147 -1.01467820512051
 6  8.55340790109011  0.32155779037904 -0.59081756225623
 6  9.71248433783378 -0.46115303560356 -0.04594289999000
 6  9.41202871917192 -1.02393120782078  1.46813118191819
 6  10.87495982598260  0.61682653685369  0.00699553795380
 6  12.24261953245325 -0.22417110991099  0.12567087828783
 6  13.21111265386539  0.92701997669767  0.22076497489749
 6  14.73515985118512  0.37291056915692  0.38887354945495
 6  15.06553154125413 -0.36403868436844  1.81144106810681
 6  15.87289691809181  1.48479338133813  0.27626083138314
 6  17.16082556065606  0.81119634403440  0.12648577467747
 6  18.21367091449145  1.83571076227623 -0.29707985478548
 6  19.83500570167017  1.33412190699070 -0.67178726242624
 6  19.99589939123912  0.91611704200420 -1.95545133633363
 6  20.69645681458146  2.50920233823382 -0.39880497639764
 1 -3.67603824212421  3.04670592159216  1.95532493419342
 1 -9.15834981748175  4.05087417251725 -0.94388802270227
 1 -10.16264875647565 -2.23673407270727 -0.84654748064807
 1 -2.32812532933293 -1.44725234303430  1.92978302660266
 1 -1.61005034363436  1.33213368956896  0.96529298269827
 1 -1.17587897159716  0.78528684308431  3.61807251835184
 1 -1.83164133803380  2.09391796819682  2.88392451025102
 1 -2.77304963746375  0.67271515681568  3.47360322942294
 1 -1.99769879017902 -2.21469274227423 -0.18784657145715
 1 -1.48971414041404 -0.86156762966297 -0.92586237703770
 1  0.10929892819282 -0.49498093139314  1.08326419161916
 1 -0.04389810961096 -2.29340567436744  0.94239447154715
 1 -3.93415794619462  5.20356818471847  0.80082504020402
 1 -4.89846012661266  6.73100577647765  1.36861376747675
 1 -4.90019104730473  5.13716267726773  2.81600937323732
 1 -8.74777779187919  5.70576568576858 -0.51346772257226
 1 -11.98133768736874 -1.51023189068907 -0.80697512471247
 1 -12.92330854585459  0.26565296509651 -1.01086872327233
 1 -13.60682850595060 -1.17258937433743 -3.42481959905991
 1 -12.19743670747075  0.03737115861586 -3.80614278377838
 1 -11.43522034643464 -1.57324064106411 -3.20790739813981
 1 -8.47553673697370 -4.95855241084108 -1.65276750475048
 1 -7.86273148774878 -5.78812882548255 -0.39655930783078
 1 -9.62078935893589 -5.08835079627963 -0.27499288978898
 1 -3.19895947734773 -3.55152887778778 -0.24368267506751
 1  3.68708032343234 -3.51411868566857 -1.11661737883788
 1  2.45672996179618 -2.30389630463046 -2.21155139043904
 1  3.85759308700870 -0.58187093549355  0.41782538413841
 1  4.04524758175818 -0.79521299379938 -3.61889200420042
 1  5.89984356275628 -0.65844451985199 -3.54730595449545
 1  4.79414324172417 -2.28859147344735 -3.56104028782878
 1  6.08651907380738  1.13653899129913 -1.72881549874987
 1  5.50835594499450  0.61411695949595 -0.46961122452245
 1  7.35131631053105 -0.95641383848385 -0.34706298469847
 1  7.20921632003200 -0.68792758305831 -1.74188366426643
 1  9.02478460986099  1.21070166496650 -1.27393017831783
 1  8.10737923602360  0.94320950915092  0.28726443484348
 1  10.10231267836784 -1.30452789648965 -0.60196735433543
 1  8.50564280858086 -1.75885470117012  1.58672703350335
 1  10.49710577997800 -1.73000688188819  2.16653854525453
 1  9.31890510211021 -0.18492971537154  2.02596390149015
 1  10.94435807360736  1.36252901280128 -1.26517368896890
 1  11.00621036763676  1.26571544714471  0.67119099939994
 1  12.35464300650065 -0.90679311881188  0.88570225352535
 1  12.54448660266027 -1.10645886648665 -0.45851884938494
 1  13.28010288028803  1.33703324832483 -0.62621152575258
 1  13.23125517031703  1.63294754605461  0.82910870027003
 1  14.99873129892989 -0.42301981798180 -0.43936212741274
 1  15.15790569046905  0.56855725122512  2.65585835883588
 1  14.10734800830083 -1.09442711461146  2.05178267636764
 1  15.99780681378138 -1.06475005810581  1.74932140984098
 1  15.51200233513351  2.12242223562356 -0.65123509820982
 1  15.65977000960096  2.08020755625562  1.26016433963396
 1  17.46898821392139  0.14489766036604  1.03965415211521
 1  17.21065859005900  0.02333050225022 -0.67178855625563
 1  17.89452445954596  2.71985853365336 -1.26334932323232
 1  18.13807380348035  2.72010591749175  0.29948661916192
 1  19.79569213041304  0.24756760296030 -0.22439908910891
 1  19.88580689868987  1.77635268486849 -2.69399152435243
 1  20.97980227022702  0.29537773597360 -1.92381651505150
 1  19.11186391339134  0.12377465906591 -2.22985105980598
 1  20.25446222482248  2.70692027112711  0.42219297289729
 1  21.92963070337034  2.27055363806381 -0.21251396639664
 1  20.77890454335433  3.25191267846785 -1.29931472777278
 1 -0.21079670477048 -3.97772052145215  2.78759710771077
 1 -1.49159884088409 -5.49555682938294  3.93326396299630
 1 -1.15306932023202 -3.67486596369637  3.93639779297930
 8 -11.33172154645465  3.94373917311731 -1.25626744044404
 1 -13.18477898939894  2.36723796389639 -0.84959556455646

