%nproc=4
%Mem=4GB
# td=(NStates=1) iop(3/107=0140000000,3/108=0140000000) iop(3/107=0140000000,3/108=0140000000) CAM-B3LYP/6-31G(d,p) 

TD

0 1
12 -5.65598710531053  1.25194006830683  0.20679928512851
 6 -4.98029841704170 -2.09273773707371 -0.35062192899290
 6 -3.31518030713071  1.18066835163516  2.81217659095910
 6 -6.28539733543354  4.46736000020002  0.65154536333633
 6 -8.02636840394039  1.19310016071607 -2.48517619111911
 7 -4.33047730103010 -0.26839503130313  1.06174751355136
 6 -4.22628615611561 -1.54562826442644  0.61542389198920
 6 -3.20642376687669 -2.35722902570257  1.50461482518252
 6 -2.85537870887089 -1.23856674757476  2.64434099019902
 6 -3.52221964936494  0.02293966626663  2.11963654885489
 6 -3.37669070847085 -1.71512495389539  4.02377507690769
 6 -1.94910010321032 -2.75695310461046  0.61241654715472
 6 -1.00482212571257 -3.59670725132513  1.41003459145915
 6  0.21100620112011 -3.97882172287229  0.61346954165417
 8  0.43976404070407 -3.40172748634863 -0.44636087028703
 8  1.03044989068907 -4.87543716101610  1.26991159845985
 7 -4.91741255755576  2.57724710161016  1.52154238593859
 6 -4.07705979577958  2.37758518021802  2.59435003830383
 6 -3.88486799049905  3.69014751695170  3.26452700890089
 6 -4.67980853355336  4.59686121442144  2.67154642594259
 6 -5.31565766996700  3.88951704690469  1.50686677897790
 6 -2.86680204330433  3.94751212701270  4.48902309170917
 6 -4.89370590119012  6.01598901940194  2.96165567036704
 8 -4.42546259425943  6.60764865286529  3.98057195709571
 7 -6.89337313721372  2.62529242504250 -0.74422607890789
 6 -7.04209692449245  3.87895751295130 -0.39201088978898
 6 -7.90764595099510  4.62103882868287 -1.27117122662266
 6 -8.45512496579658  3.67986491639164 -2.11248019241924
 6 -7.80685957645765  2.39513552235224 -1.76157210371037
 6 -8.28257124802480  6.02980288968897 -1.14346385518552
 6 -9.47616197949795  3.87884828302830 -3.29091372417242
 6 -8.68740019371937  4.23063120932093 -4.55425182918292
 7 -6.38824724372437 -0.10811582928293 -1.11669676167617
 6 -7.32236176577658 -0.03997006560656 -2.15562977367737
 6 -7.51170867806781 -1.33648535213521 -2.75607813041304
 6 -6.57783733253325 -2.15146471827183 -2.12628879457946
 6 -5.90363877927793 -1.38449201430143 -1.18428455885589
 6 -8.28150360816081 -1.63166329232923 -3.92152904910491
 6 -6.05857952505251 -3.55686127002700 -2.04256781188119
 8 -6.30771516701670 -4.54057175557556 -2.66546281138114
 6 -5.05213377547755 -3.56713476607661 -0.85771809160916
 6 -5.34273175057506 -4.59122456355636  0.04099777157716
 8 -5.78126389798980 -4.33787279537954  1.20236660006001
 8 -4.96993669186919 -5.83695489188919 -0.39026217081708
 6 -5.30647821202120 -6.96296815011501  0.49320114991499
 6  2.29779075227523 -5.11808292849285  0.64869882428243
 6  3.45152968796880 -4.22065222612261  1.06791469126913
 6  4.05443483368337 -3.30803367346735  0.24773840884088
 6  3.75606994589459 -3.13237817911791 -1.18692819731973
 6  5.10377680348035 -2.51976702430243  0.81865566436644
 6  6.44491936323632 -2.69796272147215  0.09071053845385
 6  7.59202452605261 -1.85173452895290  0.75226091659166
 6  9.03331415271527 -1.97093192679268  0.14877709520952
 6  9.59233561526153 -3.37850849124913  0.30569711201120
 6  9.98772935203520 -0.84802503990399  0.48298081358136
 6  11.29120642304230 -0.86486609350935 -0.34272303850385
 6  12.19689737833783  0.21577620512051  0.14650149774978
 6  13.54551700750075  0.49826469636964 -0.72964772797280
 6  14.50065836483648 -0.72252165476548 -0.63985813671367
 6  14.26864280388039  1.81354752635264 -0.22050130493049
 6  15.40320451085108  2.12309033723372 -1.10862585758576
 6  16.03063564796480  3.46205095789579 -0.81341195439544
 6  17.30333558265827  3.77286512811281 -1.48606254145415
 6  17.27939052875287  4.10680557225723 -2.99656188038804
 6  18.00953035913591  5.08186345164517 -0.75797525642564
 1 -2.75007072987299  1.14467874327433  3.58225869426943
 1 -6.38896687548755  5.59571495189519  0.79461845354535
 1 -8.78694910211021  1.06483678657866 -3.21036651545155
 1 -3.69580064486449 -3.20794611001100  1.76198425922592
 1 -1.71265838973897 -1.09157681928193  2.70234151025103
 1 -2.74071385048505 -2.55241840304030  4.56713025702570
 1 -3.09277006970697 -0.92792269666967  4.71597362716272
 1 -4.23318583028303 -2.05972505340534  3.88400235073507
 1 -2.27740305400540 -3.28313783108311 -0.27449807360736
 1 -1.57773560596060 -1.79770888718872  0.38633675527553
 1 -0.63764919841984 -3.08712000760076  2.21800601930193
 1 -1.37311203280328 -4.43622075327533  1.96155795379538
 1 -1.84315442924292  3.68629815421542  4.03942985268527
 1 -3.03307429752975  4.90461766776678  4.78161441914191
 1 -3.12384537953795  3.31088208570857  5.38208321432143
 1 -5.52126519041904  6.60079427382738  2.27706302770277
 1 -10.01908104160416  2.97571822892289 -3.49473272497250
 1 -10.09799059695970  4.57290113421342 -2.99538982968297
 1 -9.29017881768177  4.20687910191019 -5.36592179447945
 1 -8.25289479887989  5.07664741014101 -4.53669362436244
 1 -7.78019786878688  3.46907626642664 -4.80995091989199
 1 -8.19687727732773 -1.07175771867187 -4.82358335663566
 1 -8.28629961296130 -2.55597900300030 -4.31073371037104
 1 -9.26426650615062 -1.07995481888189 -3.90650755745575
 1 -4.00395775317532 -3.76725155175518 -1.32152543944394
 1  2.57851898489849 -6.17242518551855  0.73513947084709
 1  2.11355209860986 -5.09304628072807 -0.47747119671967
 1  3.67592971527153 -4.28468775057506  2.08417342494249
 1  2.83425841254125 -3.44838045914591 -1.66888942994299
 1  3.91589620292029 -2.00894445374537 -1.38819128962896
 1  4.62390456445645 -3.49534326352635 -1.70647957385739
 1  4.93503354425443 -1.44637106110611  0.81102298579858
 1  5.23986251355135 -2.44874650705071  2.01267614791479
 1  6.86104363106311 -3.81594478657866  0.26115399939994
 1  6.35752591299130 -2.48120572957296 -1.02551314681468
 1  7.23801273257326 -0.74492781788179  0.63740098559856
 1  7.60309241214121 -2.16543312641264  1.79882426772677
 1  8.66461057035704 -2.14378265346535 -0.97515085318532
 1  8.86680119881988 -4.29466823822382  0.25772197979798
 1  10.63574291509151 -3.63822802490249 -0.36875698919892
 1  10.03226228762876 -3.39842093359336  1.40390083278328
 1  9.56783593419342  0.09741546774677  0.33071843564356
 1  9.94311440894089 -0.96161269516952  1.58671821182118
 1  11.74284942624262 -1.88669870177018 -0.31938631183118
 1  10.94842092879288 -0.60475338023802 -1.37405873947395
 1  11.65999703320332  1.17176160536054  0.14470491529153
 1  12.74175899919992 -0.04502331093109  1.16484476467647
 1  13.29423622432243  0.66826125842584 -1.80555279397940
 1  14.86393573187319 -0.71460967366737  0.47653333333333
 1  13.81088665966597 -1.60055907220722 -0.59194551605160
 1  15.45199618801880 -0.85619881808181 -1.11319821232123
 1  13.37934612881288  2.55404002310231 -0.23253504120412
 1  14.59680638093809  1.42587287648765  0.82674988888889
 1  16.17398905470547  1.41541015371537 -1.21358784948495
 1  15.08473405680568  2.39791370417042 -2.14680606030603
 1  15.36672807740774  4.29758513651365 -1.05858785688569
 1  16.04577734783479  3.45147178857886  0.27146704710471
 1  17.97092077347735  2.84276576777678 -1.07676675627563
 1  16.33942466286629  4.70572710161016 -3.33649600940094
 1  18.40926685018502  4.47475698899890 -3.22498710381038
 1  16.97098729892990  3.04017508750875 -3.48668670327033
 1  18.14333038023802  4.87299851735174  0.24886655085509
 1  18.94315183748375  5.11493564576458 -1.27270418481848
 1  17.45141669256926  5.96907641074107 -0.87002106340634
 1 -5.47980328172817 -7.86852628572857 -0.24006754445445
 1 -6.32564699499950 -6.64103118971897  0.90130363786379
 1 -4.59602777137714 -6.83153472907291  1.40413487008701
 8 -7.85092268386839  6.80861736253625 -0.30856864086409
 1 -8.93119141624162  6.36319196409641 -1.87198288108811

