%nproc=4
%Mem=2GB
# td=(NStates=1) iop(3/107=0140000000,3/108=0140000000) iop(3/107=0140000000,3/108=0140000000) CAM-B3LYP/6-31G(d,p) 

TD

0 1
12 -6.58595116721672  0.73027217131713  0.17062468196820
 6 -4.57007411391139 -2.08409683148315  0.53740401740174
 6 -4.12079389478948  2.85227686078608  0.91969485108511
 6 -8.90200290499050  3.11162518661866 -0.15376487818782
 6 -9.29485758335834 -1.51776480608061 -0.82446250495050
 7 -4.72055712761276  0.46169556725673  0.73166219831983
 6 -3.96054331993199 -0.79114882168217  0.75352590799080
 6 -2.56392981158116 -0.66700846004600  1.17685974827483
 6 -2.46560652645265  0.89388953775378  1.53068523102310
 6 -3.75468173107311  1.40423050825083  0.84971974667467
 6 -2.08015430113011  1.12849464536454  2.90285484828483
 6 -1.62612136053605 -1.15931849524952 -0.11463013671367
 6 -0.12684080238024 -1.38729043564356  0.32913198669867
 6  0.72566364556456 -1.54682191909191 -0.65923409720972
 8  0.62664273237324 -1.17963057555756 -1.82934392459246
 8  1.74041432803280 -2.36886718531853 -0.34310923342334
 7 -6.38648039023902  2.52359272927293  0.47148089598960
 6 -5.27443800470047  3.29545818901890  0.74216051225123
 6 -5.55387960316032  4.75147483228323  0.76287115571557
 6 -6.87617833123312  4.94336042654265  0.33996057935794
 6 -7.47404910881088  3.47310611901190  0.17038186958696
 6 -4.46487140744074  5.81737916841684  1.22218988698870
 6 -7.61696325762576  6.24175109520952  0.31101062476248
 8 -7.08175209140914  7.29072068866887  0.55190304710471
 7 -8.49730328382838  0.81093195239524 -0.49504215331533
 6 -9.22823649604961  1.97863259855986 -0.41233228552855
 6 -10.76414304460446  1.74419429052905 -0.96562234343434
 6 -10.97090144764476  0.42735363976398 -1.06574743024302
 6 -9.51582324562456 -0.14703286648665 -0.69672174887489
 6 -11.81186796209621  2.74570076317632 -1.19923457425743
 6 -12.20126324682468 -0.32084564686469 -1.38581671537154
 6 -11.83588045014502 -1.01532369756976 -2.77566036073607
 7 -6.95472195509551 -1.41249381068107 -0.31809445394539
 6 -8.03606626822682 -2.19202919961996 -0.63821701970197
 6 -7.61099868496850 -3.55488281068107 -0.56882789288929
 6 -6.38973459465947 -3.60559972087209 -0.09609787038704
 6 -5.93052934163416 -2.14909372387239  0.07829401370137
 6 -8.47087561106111 -4.75674305210521 -0.81008382428243
 6 -5.18333453795380 -4.50851664976498  0.10400842654265
 8 -5.03537528622862 -5.72197273557356 -0.14560405380538
 6 -4.01849557495750 -3.47687824702470  0.61819646684668
 6 -3.58896240714071 -3.81765794129413  1.89625933893389
 8 -4.11721696179618 -3.86763349814982  2.92755142494249
 8 -1.99520119501950 -3.99444574987499  1.80858079727973
 6 -1.29178770087009 -4.24364945504550  2.91298572377238
 6  2.87375926872687 -2.63794897179718 -1.01985322942294
 6  3.84702847024703 -1.43162016311631 -0.95166069836984
 6  5.11105186058606 -1.45474234563456 -1.62894909650965
 6  5.33639762356236 -2.33353648834884 -2.93507048924892
 6  5.92938676327633 -0.23579123202320 -1.44723128162816
 6  7.36717541154115 -0.81128691079108 -0.80349708700870
 6  8.27849040934093  0.29845548014801 -0.26847532803280
 6  9.71818490789079 -0.33295021532153  0.08491018531853
 6  9.32157967426743 -1.03729254395440  1.60297466626663
 6  10.77785011501150  0.64955981018102  0.14349918831883
 6  12.16317158765877  0.30190149734973  0.36135444664466
 6  13.30757229982998  1.23421069576958  0.33862676107611
 6  14.65673200840084  0.63802708080808  0.40062472457246
 6  14.79525451355135 -0.11282356285629  1.77650757475748
 6  15.72650227862786  1.56434133613361  0.00659386468647
 6  17.12094157225723  0.92673789818982 -0.21711858575858
 6  18.20499004640464  2.01522871407141 -0.41288143494349
 6  19.66202840394039  1.27241573637364 -0.50455053875388
 6  19.67978778007801  0.70532596289629 -2.07793358455846
 6  20.56656382528253  2.60537195519552 -0.56286138203820
 1 -3.39839047734773  3.32181343234323  1.19465886758676
 1 -9.67594157665767  4.05695478057806 -0.45748938283828
 1 -10.09743223482348 -2.24273467276728 -1.28904173007301
 1 -2.06160867766777 -1.27350496829683  1.99141919021902
 1 -1.66265560416042  1.34465494169417  0.71384783818382
 1 -0.98269965366537  0.73083139753975  2.80358106920692
 1 -2.25488366226623  2.26579515591559  2.91581769956996
 1 -2.95953828632863  0.24393227852785  3.38229409850985
 1 -1.85018403870387 -2.21480275327533 -0.48672645944594
 1 -1.42000716971697 -0.23242471537154 -0.95030482128213
 1 -0.07822982468247 -0.49461089438944  0.80448631383138
 1  0.01255753595360 -2.30666700050005  0.92241247334734
 1 -3.70480501090109  6.22338016591659  0.59260421812181
 1 -5.13201348194819  6.90186286218622  1.23481038713871
 1 -3.58652968116812  5.42398135913592  1.88819659195920
 1 -8.71694470857086  5.92037714691469 -0.11851822762276
 1 -12.39341889548955 -1.10135100260026 -0.60577500470047
 1 -13.01618783378338  0.31881828162816 -1.00390802720272
 1 -12.73748157125713 -1.68027014241424 -3.11038815591559
 1 -11.84191115491549 -0.20897347584759 -3.82968513801380
 1 -10.85571239563956 -1.54124744174418 -2.96768337573757
 1 -8.98207739103910 -4.78639519511951 -1.83754598259826
 1 -7.71137635223522 -5.59371938453845 -0.92550220212021
 1 -9.50858813881388 -4.78255021622162 -0.07358274877488
 1 -3.23000258165817 -3.58165189008901 -0.09323763056306
 1  3.34563617901790 -3.49362663646365 -0.52554827192719
 1  2.61955624442444 -2.63897981298130 -2.08222845814581
 1  3.56965429312931 -0.59868261666167 -0.03532993139314
 1  4.56229928692869 -2.02325579807981 -3.76576669166917
 1  6.37406098449845 -2.17850652605261 -3.34846607050705
 1  5.07898172557256 -3.60819343364336 -2.61453563736374
 1  6.06569699159916  0.42750808820882 -2.63590620782078
 1  5.58728383778378  0.61281682948295 -0.47180144354435
 1  7.64180535943594 -1.42387058415842  0.34511623322332
 1  7.87444284268427 -1.82368115841584 -1.37517699359936
 1  8.38437056845684  1.08419901470147 -1.52361514681468
 1  7.94406290439044  1.12203739193919  0.56372208060806
 1  10.11112355945595 -1.22945038873887 -0.73141029862986
 1  8.60389263356336 -1.81856067176718  1.19945830663066
 1  10.47542361176118 -1.46345022622262  2.07674956635663
 1  9.14915812741274 -0.25413663606361  2.59939124422442
 1  10.61868550635064  1.20665342524252 -0.53760093169317
 1  10.69429917651765  1.29756863246325  1.09153303360336
 1  12.42870041224123 -0.33194563406341  0.98714239753975
 1  12.12001415541554 -0.32688090869087 -0.54954795229523
 1  13.20623549354936  2.06528607360736 -0.29467837243724
 1  13.40772281708171  1.76872112341234  1.39644543394339
 1  14.76896832263227 -0.54028154415442 -0.18888707990799
 1  14.76439633953395  0.41351174667467  2.69833260626063
 1  14.19845711921192 -1.03711138303830  1.59988748684868
 1  15.50727776087609 -0.64015759885989  1.83668014571457
 1  15.45509664456445  2.20276026942694 -1.29278925362536
 1  15.43939797239724  2.22329186468647  0.88981730493049
 1  17.33351466656666  0.24499767036704  0.70317050375038
 1  16.78665618981898  0.55070323952395 -0.96998837623762
 1  17.57968297539754  2.56305285308531 -1.35248823712371
 1  18.16874687078708  2.72932683958396  0.44986165666567
 1  20.11528408960896  0.81105395159516  0.54888823962396
 1  19.47314563256326  1.58501355095509 -2.93865599079908
 1  20.72976726672667  0.17015521372137 -2.22886702010201
 1  19.17942066906691 -0.18601632003200 -2.08505658035804
 1  20.62408918751875  2.97798737783778  0.57449820342034
 1  21.61242898319832  2.56191277397740 -1.20495321032103
 1  19.69122577547755  3.55796328352835 -1.12036683298330
 1 -0.24922054715472 -4.88814156355635  2.30591893989399
 1 -1.90804048504850 -4.83010028372837  3.42272290889089
 1 -0.86101011431143 -3.14830330743074  3.39035318851885
 8 -11.52963133743374  3.97689248844884 -1.17354916861686
 1 -13.20973148464847  2.25597683778378 -1.60951155615562

