%nproc=4
%Mem=2GB
# td=(NStates=1) iop(3/107=0140000000,3/108=0140000000) iop(3/107=0140000000,3/108=0140000000) CAM-B3LYP/6-31G(d,p) 

TD

0 1
12 -6.85013758585859  0.61536068016802 -0.05943832433243
 6 -4.61545865236524 -2.14210263206321  0.44310458745875
 6 -4.27512932833283  2.77607924102410  0.80342322392239
 6 -8.94466717141714  3.21845586968697 -0.27631713341334
 6 -9.34941303890389 -1.72120515011501 -0.81264132283228
 7 -4.97509258115812  0.19440883858386  0.63863289538954
 6 -4.11864913051305 -0.89264897169717  0.58391894729473
 6 -2.64011743034303 -0.60172193139314  1.05638770107011
 6 -2.55168513431343  0.91187133593359  1.23737590009001
 6 -3.85171143404340  1.40386047124712  0.88609338403840
 6 -2.45873215891589  1.19386118201820  2.79829439223922
 6 -1.66271501990199 -1.09384194759476 -0.11498017171717
 6 -0.25293341164116 -1.13740544714471  0.36819589308931
 6  0.79662074127413 -1.23701093799380 -0.66118429222922
 8  0.67654772287229 -0.93755636813681 -1.83309429962996
 8  1.93964425102510 -1.83025332393239 -0.02432735523552
 7 -6.61089283148315  2.58950932093209  0.34952870077008
 6 -5.52185274617462  3.40019866306631  0.60522681888189
 6 -5.72932714791479  4.75231491629163  0.67930279887989
 6 -7.04411512491249  4.85667175767577  0.37078366166617
 6 -7.66580828472847  3.45307411581158  0.16139097049705
 6 -4.65698061836184  5.83276070657066  0.97299496749675
 6 -7.80410197149715  6.22204912501250  0.16375589928993
 8 -7.39449336553655  7.39640125672567  0.32800065686569
 7 -8.84035758925893  0.75139599879988 -0.53685633473347
 6 -9.45214888728873  1.94983971927193 -0.52988404070407
 6 -10.84885151545155  1.66348621972197 -0.86754253545355
 6 -11.12373673117312  0.17430833523352 -0.89046990249025
 6 -9.79817148044804 -0.34756291949195 -0.79808188488849
 6 -11.97958473377338  2.54704089718972 -1.21736638743874
 6 -12.32728584908491 -0.56193975627563 -1.17143527722772
 6 -12.01873873597360 -1.03376554175418 -2.62125492019202
 7 -6.95446192909291 -1.44295685698570 -0.04894753925393
 6 -8.02556521812181 -2.25584558125813 -0.56254945294529
 6 -7.59929751485148 -3.64776209860986 -0.60671168126813
 6 -6.35285090629063 -3.72297145804580 -0.10848910951095
 6 -6.03570985968597 -2.31013982848285  0.09658584288429
 6 -8.46650517401740 -4.57663504130413 -0.99893270917092
 6 -5.19545575007501 -4.64491028912891  0.20441846754675
 8 -5.12078382708271 -5.79333987228723  0.22079258585859
 6 -4.08226195159516 -3.52593315251525  0.50319496669667
 6 -3.55146865776578 -3.77659383488349  2.02713242624262
 8 -4.15648088818882 -3.88636537133713  2.97319598939894
 8 -2.13760543544354 -3.98576488178818  1.85037497669767
 6 -1.36609513161316 -4.18186327642764  3.22777720292029
 6  2.89440133293329 -2.19780495739574 -1.10898214231423
 6  4.06010977837784 -1.05867286838684 -0.88322385468547
 6  5.21191194659466 -0.96154302570257 -1.81179738133813
 6  5.35318930273027 -1.31109424412441 -3.11460844304430
 6  6.21889571417142  0.06177852495249 -1.16992355085509
 6  7.70976967096710 -0.50553633573357 -0.95074181148115
 6  8.57020958125812  0.46687232183218 -0.23965244574457
 6  9.89482257165717 -0.30556747704770  0.18584027832783
 6  9.64666218251825 -1.06510532523252  1.46378074687469
 6  11.01871420142014  0.62224707890789  0.28278311671167
 6  12.48121339183918 -0.09952864566457  0.42888119931993
 6  13.49936147874788  0.90259753445345  0.41789468786879
 6  15.07463379857986  0.23723700180018  0.40949561166117
 6  15.23021800990099 -0.55638791929193  1.68202812681268
 6  16.11709133753375  1.34128903090309  0.42252545784578
 6  17.45881535963596  0.70839606400640  0.03309643574357
 6  18.53993354075408  1.69567675887589 -0.52813296009601
 6  19.93950615171517  1.20233872867287 -0.78359844354435
 6  20.01616141744174  0.60289571987199 -2.12783857505751
 6  20.95385255415542  2.47988940694069 -0.64855995189519
 1 -3.38134877317732  3.30266151715171  0.84975437713771
 1 -9.84820880338034  3.89879896499650 -0.53851748564856
 1 -9.98906139773977 -2.65819621892189 -1.37139996589659
 1 -2.22062457925793 -1.16020363816382  2.03317336563656
 1 -1.92110144874487  1.28448892509251  0.63407986138614
 1 -1.49225060876088  1.02211052545255  3.31231194229423
 1 -2.79687786168617  2.29758833523352  2.94640075787579
 1 -3.19529186168617  1.12305019031903  3.49807567666767
 1 -2.03592261256126 -2.06373764676468 -0.53790157695770
 1 -1.57164233323332 -0.48187966086609 -1.02515230603060
 1  0.02860085838584 -0.27521895519552  1.07036290149015
 1 -0.25855957575758 -1.96064239803980  1.25518575067507
 1 -3.68281281168117  5.77204503240324 -0.00184522682268
 1 -5.32290257085709  6.73698637453745  0.89620652675268
 1 -3.95542657085709  5.39830879187919  1.86278405070507
 1 -8.84790780488049  6.16469157835784 -0.40588696449645
 1 -12.55677523112311 -1.34129499699970 -0.32112653985398
 1 -13.24900111511151  0.20427682748275 -1.30904854125413
 1 -12.54767259035904 -2.07419953535354 -2.69516663376338
 1 -12.06914387818782 -0.53657623612361 -3.35172734223422
 1 -10.83266009040904 -1.49125244224422 -2.60479708710871
 1 -8.82428161146115 -4.61172772837284 -1.96322855085508
 1 -8.13883909850985 -5.49385939853985 -1.30987063896390
 1 -9.43784106410641 -4.71353331453145 -0.38283367386739
 1 -3.18222780418042 -3.64897862276228 -0.32387069386939
 1  3.47311892729273 -3.05283255705571 -0.76657237433743
 1  2.62440672947295 -2.23450936593659 -2.36615685098510
 1  3.80526785448545 -1.00929367776778  0.32620622222222
 1  4.32679573657366 -1.00847431993199 -3.70481059605961
 1  6.22801638003800 -0.71226990239024 -3.39529075297530
 1  5.24735856325633 -2.39846246054605 -3.47907209100910
 1  6.35106552845285  0.94740007740774 -1.59991260846085
 1  5.76392150155015  0.41636718451845 -0.23004726812681
 1  7.61499267816782 -1.77946614371437 -0.47285556395640
 1  8.40663606200620 -0.86915570587059 -1.98844832073207
 1  8.74263639503950  1.19929052385239 -1.01446423172317
 1  8.47299579767977  0.87619280748075  0.80659636803680
 1  10.13212565966597 -0.96632407610761 -0.74642179977998
 1  8.62441468576858 -1.47545636133613  1.51116947774778
 1  10.39492556195620 -1.58407228842884  1.77307919931993
 1  9.93575678727873 -0.21959318171817  2.30647195229523
 1  11.18854249204920  1.25857861776178 -0.46967413901390
 1  11.15229497609761  1.24576345194519  1.16287016731673
 1  12.58885642784278 -0.95511795129513  0.99234291759176
 1  12.94617677167717 -0.83944216481648 -0.58214121162116
 1  13.70511538153816  1.81534107910791 -0.16790569516952
 1  13.20439248404840  1.34426867816782  1.50014580398040
 1  14.90287171297130 -0.28386590259026 -0.42857104830483
 1  15.04925482538254 -0.02483208770877  2.91946471947195
 1  14.43085035853585 -1.55235290719072  1.77820531863186
 1  16.39041607470747 -1.35620920402040  1.57441391909191
 1  15.90487162206220  2.08719871327133 -0.50081005570557
 1  15.78579261186119  1.90777031253125  1.72443076627663
 1  17.92538385348535  0.21976514711471  1.03615380208021
 1  17.46701422562256  0.10333850305030 -0.58721009840984
 1  17.98920392749275  2.48659520732073 -1.42467545584558
 1  18.70226022212221  2.32963687058706  0.33580025052505
 1  20.20928348954896  0.60801364756476  0.18361171197120
 1  19.96513483148315  1.40100515011501 -3.16141826702670
 1  21.04709899989999 -0.21489329112911 -2.44925905930593
 1  19.53082580958096 -0.51396911531153 -1.78811688638864
 1  20.63654043264326  2.70404998409841  0.43269402300230
 1  21.90181792209221  2.14426100880088 -1.12255497049705
 1  20.28367502040204  3.18493598079808 -1.26509130543054
 1 -0.56861248634863 -4.18449119851985  2.82371071907191
 1 -1.75719540054005 -5.31218849254925  3.51862249884989
 1 -1.53546756005601 -3.48532700980098  3.90075422862286
 8 -11.94608298259826  3.83724852405240 -0.96437825152515
 1 -12.95283579507951  2.14894613471347 -1.71568217321732

