%nproc=4
%Mem=2GB
# td=(NStates=1) iop(3/107=0140000000,3/108=0140000000) iop(3/107=0140000000,3/108=0140000000) CAM-B3LYP/6-31G(d,p) 

TD

0 1
12 -6.83656622872287  0.58383752785279  0.09225684518452
 6 -4.46775388188819 -2.04927334913491  0.55737601460146
 6 -4.24276609200920  2.82725435853585  0.79734261586159
 6 -9.06923962866287  3.11967599169917 -0.13810331203120
 6 -9.27406550415042 -1.79637266686669 -0.59032909160916
 7 -4.76474154605460  0.36016541424142  0.54471350345035
 6 -3.95799306490649 -0.75953566036604  0.65810636603660
 6 -2.46362978157816 -0.49206096529653  0.99812187448745
 6 -2.54819478527853  1.05882603140314  1.19751191369137
 6 -4.03990025292529  1.52691277647765  0.84344911961196
 6 -2.22575886158616  1.58933072897290  2.49451401420142
 6 -1.58734748314831 -0.88521108450845 -0.22108078177818
 6 -0.00469858815882 -1.00413211981198  0.32597167066707
 6  0.93396447564756 -0.95071230813081 -1.08195636943694
 8  0.76642671077108 -0.47826043854385 -2.16860785098510
 8  1.92190247684768 -1.96348664726473 -0.77021194369437
 7 -6.60749249144915  2.62951332133213  0.31468521642164
 6 -5.51787234813481  3.36610525372537  0.47805410161016
 6 -5.82288650385038  4.76120580538054  0.47774264286429
 6 -7.21237195059506  4.80951704220422  0.28514509780978
 6 -7.77014871877188  3.49967877627763  0.06079091049105
 6 -4.97670259055906  5.83050048054805  0.80100776877688
 6 -8.11335289658966  5.97237415751575  0.20675019871987
 8 -7.74776869306931  7.17913953055306  0.43111096789679
 7 -8.71409496299630  0.60992185138514 -0.34156680578058
 6 -9.62152582498250  1.79202393769377 -0.29291034333433
 6 -10.94242087238724  1.52374224532453 -0.62260804200420
 6 -11.06330068756876 -0.07461655725573 -0.66881773727373
 6 -9.73592525582558 -0.42637080028003 -0.67054913161316
 6 -12.17628440374037  2.29810600370037 -0.77081173197320
 6 -12.15095821632163 -0.80283384568457 -1.22640077377738
 6 -12.03985084718472 -1.08012017721772 -2.63824661936194
 7 -6.84947143004300 -1.42817537883788 -0.10713335783578
 6 -7.95927858945895 -2.23058305500550 -0.35097829582958
 6 -7.42181976707671 -3.72767008940894 -0.19133014311431
 6 -6.19928554975498 -3.67086624752475  0.11720345974597
 6 -5.85454174287429 -2.16993580808081  0.29960614491449
 6 -8.22635115861586 -4.84743212101210 -0.42719553545354
 6 -5.11259746424642 -4.49524532263226  0.30488851455145
 8 -4.85831758045805 -5.68863940224022  0.08549905650565
 6 -3.89032275767577 -3.42964352355236  0.54966961416142
 6 -3.20251376227623 -3.63978015351535  1.91485119811981
 8 -3.70339557965797 -3.82388912371237  2.93970264006401
 8 -2.00192186708671 -3.50256656195620  1.72755269446945
 6 -1.01545006710671 -3.85043013311331  3.16814123932393
 6  3.09817170997100 -2.05300047694769 -1.78115936003600
 6  4.12687645504551 -1.01231823292329 -1.37921345364536
 6  5.06891764716472 -0.66582345374537 -2.15518171977198
 6  5.40729471327133 -1.20589372407241 -3.56231321352135
 6  6.16630045464546  0.30703305040504 -1.71338789728973
 6  7.47828652265226 -0.43891967406741 -1.20561729902990
 6  8.58164072437244  0.39756539113911 -0.69312779327933
 6  9.68836192559256 -0.31706862716272 -0.06375468116812
 6  9.40818833513351 -0.83605241994199  1.54211858065807
 6  10.88133046304631  0.66953180738074 -0.01171633323332
 6  12.25341061156116 -0.08938763156316  0.38456676787679
 6  13.45337688028803  0.88148542324232  0.54835773417342
 6  14.75582191739174  0.10960423852385  0.70130479257926
 6  14.80696568466847 -0.45924820532053  2.10468039203920
 6  16.02672230063006  1.14782968496850  0.46219942524252
 6  17.23584306240624  0.42674789918992  0.05750887698770
 6  18.45842538993899  1.54139133033303  0.04656450965097
 6  19.81270347144714  0.78682717751775 -0.29421950565056
 6  19.85810561186119  0.13073850415042 -1.60282607380738
 6  20.82890005890589  1.78066948494849  0.08473337743774
 1 -3.53529416771677  3.37227847884789  0.90554995669567
 1 -9.78984296679668  4.01504058915891 -0.44512814671467
 1 -10.21557404900490 -2.62001240054005 -0.32940576647665
 1 -1.80285280208021 -1.10109772757276  1.87869791809181
 1 -1.81578091669167  1.49703017921792  0.32846930033003
 1 -1.09687107080708  1.22677099149915  2.74772548364836
 1 -2.24937311121112  2.73658223462346  2.57921403920392
 1 -2.78939127162716  1.19312719801980  3.19593546264626
 1 -1.89496851715171 -1.94064533753375 -0.59214700150015
 1 -1.81407657665766 -0.14481595449545 -1.08792858365837
 1  0.43258125642564 -0.18510994429443  0.74419028422842
 1  0.21306758695870 -2.25031136493649  0.64927515961596
 1 -4.09503403380338  5.50219804770477  0.17766272397240
 1 -5.03296357695770  6.90115279117912  0.22861976807681
 1 -4.68132916111611  6.05556451745175  1.80302807510751
 1 -8.98065107920792  5.99897500670067 -0.28399477527753
 1 -12.50900045364537 -1.62526339383938 -0.72887731493149
 1 -13.16411262626263 -0.39262286248625 -1.04559219561956
 1 -12.91997982108211 -2.04450656605661 -2.85751286838684
 1 -12.28735569936994 -0.28715129362936 -3.35811798129813
 1 -11.20759758415842 -1.31678499549955 -2.97847445484548
 1 -8.82340152345235 -5.05732228782878 -1.54661688968897
 1 -7.95376059065907 -5.80923093569357 -0.78597824972497
 1 -9.11287856785679 -4.97442940414041  0.30123473297330
 1 -2.84935451685168 -3.59418314321432 -0.23266157295730
 1  3.46256787218722 -3.09314658845885 -1.60891660876087
 1  2.77418170697070 -2.02351826682668 -2.74581481678168
 1  3.93183051075108 -0.60568331673167 -0.16490288868887
 1  4.81215427242724 -0.77833130563056 -4.46879699469947
 1  6.63418699709971 -1.08592726812681 -4.08384960886089
 1  4.98307213461346 -2.40823343764376 -3.60267445124512
 1  6.46356677857786  1.11971730913091 -2.32182479967997
 1  5.75322043144314  1.07079262706271 -0.87804206760676
 1  6.96163734263426 -1.36088428552855 -0.60143842224222
 1  8.12972837123712 -0.75489427972797 -2.00470994689469
 1  9.15289742114211  0.94515511031103 -1.69096188148815
 1  8.07281577967797  1.11218640684068  0.01993770217022
 1  10.40211265836584 -1.10951839553955 -0.73326048364836
 1  8.58808105240524 -1.65193400910091  1.39287764856486
 1  10.35739180858086 -1.12835671687169  2.06917880928093
 1  9.00749396099610  0.18701747934793  2.44943624872487
 1  10.96935057285729  1.03606636653665 -1.07201437303730
 1  10.75369511611161  1.51092996859686  0.62352623292329
 1  12.21638918111811 -0.47683012251225  1.21750543384338
 1  12.56245839983998 -0.66502472307231 -0.46921991949195
 1  13.57640251025103  1.78607815281528 -0.37470637523752
 1  13.38155019981998  1.44379863116312  1.25701149054905
 1  15.04686611241124 -0.70444796079608 -0.06060425162516
 1  14.46415631553155 -0.16032563706371  3.21563433643364
 1  14.08002527602760 -0.77154482638264  2.20696819491949
 1  15.95001203430343 -1.06662024512451  2.21554803250325
 1  15.61650278517852  1.62416240964096 -0.36586656135614
 1  16.09250328292829  1.65648518401840  1.15259358255826
 1  17.36277759285928 -0.29824665406541  0.83592377907791
 1  16.98430595479548 -0.08621045184519 -0.84537591499150
 1  18.33562856995700  2.22612916071607 -0.81505449374938
 1  18.60570056615662  2.24048795569557  0.94657132763276
 1  20.04656721792179 -0.29535668946895  0.36668001880188
 1  19.41156947494749  0.67150219981998 -2.17496962216222
 1  20.75972026202620 -0.51232303410341 -1.51393552695269
 1  19.10148287528753 -0.57163488188819 -1.68902697739774
 1  20.89353613221322  2.09968954805481  0.90233098669867
 1  21.77170491079108  1.64480106280628 -0.26975969096910
 1  20.61069772267227  2.87813530073007 -0.64832962926293
 1  0.14619899479948 -3.27073982338234  2.88536688468847
 1 -0.94712439343934 -5.13935120882088  3.14661529812981
 1 -1.88055206850685 -3.11635011211121  4.32330648384839
 8 -12.02637101140114  3.43316811601160 -0.70987280098010
 1 -13.13534404590459  1.68354959505951 -0.68392899789979

