%nproc=4
%Mem=2GB
# td=(NStates=1) iop(3/107=0140000000,3/108=0140000000) iop(3/107=0140000000,3/108=0140000000) CAM-B3LYP/6-31G(d,p) 

TD

0 1
12 -6.73052562466247  0.60719986408641  0.14401202070207
 6 -4.50109721622162 -1.99086750855086  0.44640491749175
 6 -4.35573738913891  2.88061969506951  1.04764764636464
 6 -9.08463116781678  3.09718374247425 -0.22364186588659
 6 -9.24430252785279 -1.81980501010101 -0.65531559025903
 7 -4.91183625552555  0.41454085178518  0.78704773687369
 6 -3.91143840944094 -0.74705441224122  0.79471002640264
 6 -2.53146656525653 -0.40163192239224  1.08052011431143
 6 -2.46236620242024  1.12424257305731  1.40937309980998
 6 -4.03525978887889  1.51987207240724  0.99942471717172
 6 -1.98740502620262  1.20891268716872  2.94174873767377
 6 -1.53532228062806 -0.85128769216922 -0.06375504920492
 6 -0.15046316461646 -0.98137984458446  0.40245931943194
 6  0.87407848704870 -1.06224346124612 -0.89998817261726
 8  0.86089615771577 -0.45498811131113 -1.97147813801380
 8  1.86527681428143 -1.87609790839084 -0.45896081858186
 7 -6.79649139133913  2.51814218421842  0.29660340824082
 6 -5.80151071197120  3.28233687688769  0.77285358155816
 6 -6.09551376657666  4.74763444824482  0.61070593919392
 6 -7.50238095149515  4.83534962546255  0.37447403070307
 6 -7.91132283618362  3.43019182758276  0.11531636303630
 6 -5.37827274757476  5.85891332183218  1.10098776677668
 6 -8.45912747404740  6.02099902000200  0.28773829752975
 8 -7.90289420562056  7.22111372797280  0.24875273207321
 7 -8.71968552205220  0.58837969716972 -0.35740838993899
 6 -9.53614728712871  1.60003473877388 -0.43805485778578
 6 -10.93805043534353  1.39983985508551 -0.80401618281828
 6 -11.04051840934093 -0.08256735233523 -1.00466132163216
 6 -9.64966662996300 -0.50087825102510 -0.63708578527853
 6 -11.90861763706371  2.33739993309331 -1.11668631943194
 6 -12.30337345784578 -0.74408797109711 -1.36561469516952
 6 -12.18242510461046 -0.91499366456646 -2.72469526422642
 7 -6.85462194509451 -1.39302186348635 -0.06517916241624
 6 -7.97668032963296 -2.20100009670967 -0.46609980798080
 6 -7.41419900500050 -3.65532285468547 -0.42532354245425
 6 -6.08685430663066 -3.61131029192919 -0.07700596119612
 6 -5.81058734743474 -2.19828864336434  0.31412759705971
 6 -8.03275179867987 -4.69437681548155 -0.93943675957596
 6 -4.91607781228123 -4.30857665576558  0.22442046774677
 8 -4.52651440014001 -5.41932247054705 -0.21175066846685
 6 -3.78562228762876 -3.27592815201520  0.52950759795980
 6 -3.25720923182318 -3.60427660316032  1.82667238023802
 8 -3.75737097719772 -3.81952868766877  2.76969563936394
 8 -1.77186886178618 -3.46749305460546  1.80210014921492
 6 -1.09516803890389 -3.71815690579058  3.13543796899690
 6  2.96357825062506 -2.08876405330533 -1.30088133223322
 6  3.95148891629163 -1.06776377747775 -0.92318785108511
 6  5.02904365976598 -0.76455332673267 -1.78194439603960
 6  5.24337832163216 -1.45780891559156 -3.21948893109311
 6  6.14840866546655  0.22860520762076 -1.19620617911791
 6  7.41952064606461 -0.63213899599960 -0.88065480278028
 6  8.64848740904090  0.43964959955996 -0.55943442394239
 6  9.75400849024903 -0.54156107640764 -0.03033133883388
 6  9.62131964826483 -1.03166198089809  1.32749711851185
 6  11.07132946294630  0.43050790499050 -0.10596575817582
 6  12.32887815831583 -0.20575926872687  0.24979329052905
 6  13.46456799939994  0.83722099679968  0.56453935233523
 6  14.79081541674167  0.21873515161516  0.42272693479348
 6  14.83371835993599 -0.56928920942094  1.78510843484348
 6  15.91609123752375  1.14240914291429  0.50608381368137
 6  17.29761924002400  0.33351857625763  0.07137026312631
 6  18.47360690809081  1.53204039523952 -0.24158430523052
 6  19.83210541164116  0.85865436023602 -0.62966305000500
 6  19.84785458675868  0.17987341764176 -2.07357314851485
 6  20.98737590649065  1.95551696969697 -0.35037013291329
 1 -3.76138677697770  3.71554280528053  1.40931033273327
 1 -9.83665764826483  3.77066615171517 -0.37968160206021
 1 -9.93208570017002 -2.54348474777478 -1.18416124202420
 1 -2.36804932173217 -1.33545116291629  2.22681272957296
 1 -1.71345068366837  1.94596507270727  0.42418887228723
 1 -0.83178456215621  1.13999231363136  3.22027273837384
 1 -2.32412058595860  2.27809638603860  3.24054017181718
 1 -2.47549988248825  0.57668555385539  3.88479434853485
 1 -1.90185920622062 -1.98972024502450 -0.23612139893989
 1 -1.96765193419342 -0.20078155105511 -1.19163895469547
 1  0.01712971127113 -0.04173560686069  0.81546741194119
 1  0.02153843404340 -1.87804413821382  1.39436966906691
 1 -4.49493402380238  6.30152798069807  0.38997395509551
 1 -6.06864714531453  6.92739541544154  1.09532643874387
 1 -4.76385741394139  5.56904586558656  2.14578235053505
 1 -9.68289130323032  5.58879398859886 -0.00763713951395
 1 -12.03111266486649 -1.79182004950495 -0.83311773897390
 1 -13.23416963196320 -0.49007260746075 -1.03145078147815
 1 -12.82861068416842 -1.62737485288529 -3.20406752385238
 1 -12.20137710151015 -0.13368594709471 -3.52734490399040
 1 -11.43176000040004 -1.37798111511151 -3.16718332573257
 1 -8.04637382068207 -5.03960051565157 -2.12856508450845
 1 -7.33891910651065 -5.73466347894790 -0.73662331423142
 1 -9.29144642464246 -4.63783574477448 -0.82242763326333
 1 -3.17383696509651 -3.34399812471247 -0.10563887068707
 1  3.17175879127913 -3.01804907870787 -1.00705642274227
 1  2.72460674947495 -1.89154506950695 -2.36862709800980
 1  3.43182050975098 -0.38326107450745  0.28004160576058
 1  4.38412146914692 -1.23866733923392 -3.66399651465147
 1  6.08064164256426 -0.95904457985799 -3.96376760066007
 1  5.28380220762076 -2.38016063036304 -3.21709589338934
 1  6.30993141504150  1.23240857825783 -2.28053067026703
 1  6.07967307670767  1.12702825062506 -0.43301756515652
 1  7.11634281318132 -1.38550674777478  0.00557227882788
 1  7.93943934233423 -1.33361215151515 -1.56238571447145
 1  8.72753488488849  1.17077767256726 -1.29189197449745
 1  8.33799229732973  1.13962915111511  0.24568027642764
 1  9.54962740984099 -1.15748319201920 -0.83329048664866
 1  9.05846809110911 -2.17067588328833  1.49188754955496
 1  10.51838790819082 -1.40560444164416  2.05585747714772
 1  9.34143735533554  0.02623140074007  2.02110341544154
 1  11.11089472727273  1.08487124702470 -1.06450362196220
 1  10.97329707630763  1.21460033563356  0.61787566786679
 1  12.41184872707271 -0.92566500600060  1.08987267056706
 1  12.78388054205421 -1.06260448104811 -0.68128112561256
 1  13.61339620962096  1.84975452045205 -0.02242114671467
 1  13.35537758255825  1.40264451575158  1.61270706010601
 1  15.19107053285328 -0.40469798579858 -0.36159435063506
 1  15.17957785768577 -0.03399300380038  2.78426119911991
 1  13.65262253575358 -1.14919259115911  1.77843534163416
 1  15.78088512161216 -1.40160374347435  1.70712719041904
 1  15.61758289318932  2.30423041644164 -0.14449442414241
 1  16.27365139773977  1.44999453495349  1.52450077327733
 1  17.53236455155515 -0.44019084848485  0.82597278397840
 1  16.78443596779678 -0.05482731353135 -1.26437781518152
 1  17.97003201030103  2.35360190799080 -1.07432042034204
 1  18.91320131623162  1.86705061196120  0.73202987348735
 1  20.00186274747475 -0.02048920272027  0.35028837963796
 1  19.95458377637764  1.01289633923392 -2.71801392659266
 1  20.96733102310231 -0.41578338013801 -2.59288342174217
 1  19.02640536753675 -0.71871959035904 -2.16802487718772
 1  21.44776155475547  1.98986856595660  0.78763951755176
 1  21.76350409070907  1.61696827952795 -0.93049576457646
 1  20.75563221612161  3.28115560276028 -0.87276207250725
 1  0.19748412331233 -3.85972872227223  3.14470281828183
 1 -1.49010869186919 -4.59088636233623  3.42666330293029
 1 -1.64352836613661 -2.75986446354635  3.79555370857086
 8 -11.75544391869187  3.67968276747675 -1.06811862556256
 1 -12.88437894939494  1.97424866496650 -1.26964756975698

