%nproc=4
%Mem=4GB
# td=(NStates=1) iop(3/107=0140000000,3/108=0140000000) iop(3/107=0140000000,3/108=0140000000) CAM-B3LYP/6-31G(d,p) 

TD

0 1
12 -5.64164567116712  1.22232710701070  0.27813641884188
 6 -5.02122250945095 -2.12440090339034 -0.38546541334133
 6 -3.41215000410041  1.09152943774377  2.82030740404040
 6 -6.11310010571057  4.65675894009401  0.56615682448245
 6 -8.05625139223922  1.10357120782078 -2.33743141664166
 7 -4.36917117041704 -0.31467965976598  1.14727606640664
 6 -4.30114364186419 -1.57843154475448  0.69489183878388
 6 -3.23268639313931 -2.32302560536054  1.43635799949995
 6 -2.95671884288429 -1.42901579247925  2.62522907900790
 6 -3.55174260166017 -0.17048967666767  2.20233481868187
 6 -3.62348538793879 -1.88806224762476  3.95551825122512
 6 -1.93584877807781 -2.64105151445145  0.70007531303130
 6 -0.93780542404240 -3.46457403800380  1.45525911391139
 6  0.28600370087009 -3.84770861156116  0.64418261296130
 8  0.55183524782478 -3.43889120272027 -0.43538977317732
 8  1.04992183788379 -4.79096871417142  1.19231383868387
 7 -4.82537335363536  2.65533491039104  1.41034126582658
 6 -3.94919700950095  2.40043746544654  2.46979758305831
 6 -3.68232773647365  3.64195269746975  3.19690024622462
 6 -4.59305985868587  4.58829035733573  2.53949322062206
 6 -5.25227133133313  3.99109720492049  1.46656274857486
 6 -2.76327169026903  3.85987336313631  4.26026021542154
 6 -4.55160169076908  6.11374879537954  2.87273677847785
 8 -3.83231327932793  6.64774266226623  3.78610251015101
 7 -6.86409020892089  2.66458635443544 -0.68663031933193
 6 -6.84583729852985  3.91297091429143 -0.34721641034103
 6 -7.85302048844884  4.60800752555255 -1.23414752425243
 6 -8.32666211951195  3.67005393529353 -2.09085803020302
 6 -7.74016290679068  2.39760576937694 -1.68368431493149
 6 -8.22594558545855  5.95773568296830 -1.20008951775177
 6 -9.27417178047805  3.80559095729573 -3.19585421822182
 6 -8.59613106680668  4.13186133233323 -4.53885028902890
 7 -6.44217263626363 -0.13727874557456 -0.97645273727373
 6 -7.46685621522152 -0.04321038963896 -2.00791500220022
 6 -7.66354386158616 -1.37324902850285 -2.62921544414441
 6 -6.82165171397140 -2.23484305610561 -2.01061722742274
 6 -6.06785520092009 -1.43248681378138 -1.09840597099710
 6 -8.60588604640464 -1.62643276927693 -3.78234513071307
 6 -6.23926759385939 -3.54498008190819 -2.08539209430943
 8 -6.53466786228623 -4.57058475687569 -2.66001226632663
 6 -5.02523108520852 -3.61550960356036 -0.85219753955396
 6 -5.34598207560756 -4.55102054315432  0.14392806460646
 8 -5.90533630523052 -4.40595960406041  1.23887025042504
 8 -4.98531823002300 -5.82272346874687 -0.30870401500150
 6 -5.44305186938694 -6.94116596989699  0.49546137593759
 6  2.32128310151015 -5.27146826702670  0.50203415781578
 6  3.31134566956696 -4.30277043794379  1.00699859965997
 6  4.08153754395440 -3.50817368746875  0.18189182418242
 6  3.74399873877388 -3.26371131243124 -1.30847035153515
 6  5.17751417721772 -2.54151919951995  0.64038783758376
 6  6.59408427972797 -2.83558648384838 -0.13761229382938
 6  7.66391171477148 -1.86993634913491  0.50195588608861
 6  8.95412623392339 -1.92746758035804 -0.23423120562056
 6  9.49156553825383 -3.34447508790879  0.01535807810781
 6  9.92877345644564 -0.86735697309731  0.40483299879988
 6  11.33601090349035 -0.78717832473247 -0.31929069526953
 6  12.09664735333533  0.36413104060406  0.21910875847585
 6  13.44493694949495  0.61480635053505 -0.49328409160916
 6  14.43290158915892 -0.62012141474147 -0.33801795269527
 6  14.20271621122112  1.93939011061106 -0.15507476227623
 6  15.42423661406140  2.24438246644664 -0.95030002500250
 6  16.10880346474647  3.52900765356536 -0.52317293049305
 6  17.33707895699570  3.88616645824582 -1.35226916211621
 6  16.95850844054405  4.06479137083708 -2.89037126132613
 6  17.93158256435643  5.27978324362436 -0.63017247614761
 1 -2.61734745754575  1.07229150455046  3.63228369676968
 1 -6.16243422222222  5.67478285868587  0.73451244294429
 1 -8.90944135133513  0.97725802870287 -3.00032551135113
 1 -3.69072013681368 -3.19541485688569  1.66513457425743
 1 -1.89153627752775 -1.13512117371737  2.80123139923992
 1 -3.33875365446545 -2.99273243444344  4.02153569756976
 1 -3.67681847454746 -1.20738064246425  4.81965399519952
 1 -4.84770728242824 -1.91636071697170  3.67945189568957
 1 -2.05573088678868 -3.18484800210021 -0.24971559535954
 1 -1.48307614001400 -1.65206432273227  0.45479360096010
 1 -0.67790322382238 -3.09012030763076  2.44985920462046
 1 -1.43043776537654 -4.23057018821882  1.80723252125213
 1 -1.69073918771877  3.72241176557656  4.01485739543954
 1 -2.96168715881588  4.87431463746375  4.45987224492449
 1 -3.16257925292529  3.26887788528853  5.11398640464046
 1 -5.09710277417742  6.89380357475748  2.26565188658866
 1 -10.01953108660866  2.98600925802580 -3.35254850655065
 1 -9.91413221112111  4.73670751485149 -2.94505479617962
 1 -9.33614341414141  4.20551896589659 -5.45165036733673
 1 -8.11978148754875  5.17077682308231 -4.57354730973097
 1 -7.77973782278228  3.55512487128713 -5.08320824562456
 1 -8.20391798139814 -0.76663720662066 -4.38445944424442
 1 -8.52044302730273 -2.67899130423042 -4.03204584158416
 1 -9.59083916341634 -1.54729155255526 -3.39991689838984
 1 -3.97822517991799 -3.77232205880588 -1.43800708760876
 1  2.43050418341834 -6.22149009200920  0.96451240814081
 1  2.20133087648765 -5.43902087818782 -0.53649709930993
 1  3.51084320662066 -4.25131441324132  2.08575358295830
 1  2.90745573227323 -3.65849147024703 -1.52140468146815
 1  3.78083269656966 -2.05903946324632 -1.49547201770177
 1  4.49371154515451 -3.86584031323132 -1.98437736363636
 1  5.01307134803480 -1.51036746074607  0.56772865636564
 1  5.19389791709171 -2.75304693709371  1.75260014031403
 1  7.03876140284028 -3.86989018111811 -0.08323043904390
 1  6.45549570997100 -2.64777238623862 -1.18100869636964
 1  7.34196312761276 -0.84255758085809  0.35063230873087
 1  7.93112521542154 -2.07317390049005  1.52026641194119
 1  8.83269737903790 -1.65030330553055 -1.33560689878988
 1  8.86107062576258 -4.17598637003700 -0.52376616901690
 1  10.58346768756876 -3.37804200630063 -0.61931204470447
 1  9.75045410681068 -3.57321841334133  0.93506394909491
 1  9.55297444804481  0.20266599279928  0.23924928872887
 1  10.12336243374337 -0.94265079897990  1.55445498549855
 1  11.83131827312731 -1.65164519641964  0.05445107190719
 1  11.09549563626363 -0.75884878977898 -1.36791812541254
 1  11.57773880738074  1.42465689488949  0.20637108190819
 1  12.43679850315031  0.40957214861486  1.45167344754475
 1  13.23008980968097  0.81597602990299 -1.50675291399140
 1  14.65945528382838 -0.73845205790579  0.79726540654065
 1  14.00550612161216 -1.60792980928093 -0.65603192469247
 1  15.24587557595760 -0.51055425362536 -0.98363525602560
 1  13.45731392559256  2.72438705780578 -0.27884967266727
 1  14.45813251355136  1.79756004520452  0.90449766366637
 1  16.01325298109811  1.18733734643464 -0.97452394309431
 1  15.02372795619562  2.22333624642464 -1.99112049174917
 1  15.43760516511651  4.29711508950895 -0.87118911701170
 1  16.28605137523752  3.55626226762676  0.47521742214221
 1  18.00495417681768  3.11315280648065 -1.05680476007601
 1  16.08694941534153  4.76330285918592 -2.86003836363636
 1  17.92977890139014  4.47336684998500 -3.24595920102010
 1  16.67938813901390  3.16662773277328 -3.29634766936694
 1  17.95327137433743  5.24021523902390  0.43639530373037
 1  18.74434195649565  5.39811396359636 -1.15994290869087
 1  17.16660821172117  6.14528403150315 -0.90521458275828
 1 -5.25190049144915 -7.84345377847785  0.04989145144514
 1 -6.59125355565557 -6.53570065666567  0.85383889138914
 1 -4.96661483008301 -6.88858043364336  1.59075353195319
 8 -7.63593118471847  6.83834033483348 -0.57613539753975
 1 -9.12647094419442  6.20321596649665 -1.81535721852185

