%nproc=4
%Mem=4GB
# td=(NStates=1) iop(3/107=0140000000,3/108=0140000000) iop(3/107=0140000000,3/108=0140000000) CAM-B3LYP/6-31G(d,p) 

TD

0 1
12 -5.61554306090609  1.21243611791179  0.23231183638364
 6 -5.07179756695670 -2.12690115341534 -0.42419928672867
 6 -3.39734852395239  1.08533881868187  2.71696707000700
 6 -6.11530032573257  4.46477974217422  0.60144035283528
 6 -8.05355112221222  1.21688253895390 -2.39690736423642
 7 -4.48548280158016 -0.32521071287129  0.93641498029803
 6 -4.19100262776278 -1.61805550715072  0.59802215181518
 6 -3.15050817531753 -2.36776007880788  1.42009637333733
 6 -2.93194636563656 -1.37303019391939  2.51554811091109
 6 -3.65274270167017 -0.13320594829483  2.09150373557356
 6 -3.49930296969697 -1.75668911031103  3.96430913031303
 6 -2.03509870307031 -2.78344575387539  0.59503480898090
 6 -0.89929157265727 -3.51205878647865  1.39094268226823
 6  0.22897799829983 -3.90349419011901  0.54832302700270
 8  0.46064612891289 -3.48238555215522 -0.53636987118712
 8  1.13920076577658 -4.58611822912291  1.32662727002700
 7 -4.86474729102910  2.60488986588659  1.37130736243624
 6 -3.94963705350535  2.35975339703970  2.39630023332333
 6 -3.78476798049805  3.60421892409241  3.14206476267627
 6 -4.66454700740074  4.53660518881888  2.60579985128513
 6 -5.26054215841584  3.86915501070107  1.44794088638864
 6 -2.83509887298730  3.75786316211621  4.34798898829883
 6 -4.80045657625763  5.93194061456146  3.01444094889489
 8 -3.99559960796080  6.47410529852985  3.81925582548255
 7 -6.92827662756276  2.60590048584859 -0.73909556585659
 6 -6.94833754855486  3.88629824702470 -0.36702839153915
 6 -8.01346653305331  4.58753547834783 -1.18407251675168
 6 -8.49189864316432  3.64137106700670 -2.07167611201120
 6 -7.82992188268827  2.48376438523852 -1.75917186368637
 6 -8.34447743864387  5.97341725112511 -1.17254676347635
 6 -9.50402476577658  3.84982538073807 -3.18554318711871
 6 -8.92657411111111  4.14314246044604 -4.59634603860386
 7 -6.39190760976098 -0.09281429912991 -1.12243733573357
 6 -7.45817534713471 -0.05022109070907 -2.00901511221122
 6 -7.64328183538354 -1.34267597119712 -2.64323684628463
 6 -6.67884743354335 -2.17160673247325 -1.99098526422642
 6 -5.97770618601860 -1.35943950905091 -1.06434256465647
 6 -8.60441589938994 -1.73668379437944 -3.76968386458646
 6 -6.24065773287329 -3.52229781368137 -1.98384193929393
 8 -6.57893228872887 -4.48730642904290 -2.71937820292029
 6 -5.07413597569757 -3.51958001060106 -0.91989430923092
 6 -5.46815429282928 -4.72667810891089  0.14114778657866
 8 -5.88725449704970 -4.56347535563556  1.24387075047505
 8 -5.06749644784478 -5.93043423982398 -0.32988613321332
 6 -5.33262082628263 -6.95583743704370  0.60023185298530
 6  2.40578155135514 -4.89133025322532  0.74781873627363
 6  3.48810334533453 -3.93608376927693  1.10174807460746
 6  4.04208359855986 -3.08636150625063  0.27979161416142
 6  3.69390372927293 -2.95695063636364 -1.13155265976598
 6  5.20362678847885 -2.24846989458946  0.67078087688769
 6  6.51408627992799 -2.45472839803980  0.02377384478448
 6  7.63075839943994 -1.65139449494950  0.76602229272927
 6  9.00567138843884 -1.83273810741074  0.01066328382838
 6  9.51896827852785 -3.26676731713171  0.14479102140214
 6  10.02694327342734 -0.78404864226423  0.36456897239724
 6  11.40219752215222 -0.83505311221122 -0.33131189738974
 6  12.25104279287929  0.26996162366237  0.06634348194819
 6  13.66895935173517  0.40442531243124 -0.54592935613561
 6  14.52983128212821 -0.84457385998600 -0.42432658355836
 6  14.35020095969597  1.70418659025903 -0.36835609040904
 6  15.57740193059306  2.01260928912891 -1.19813480848085
 6  16.35440802520252  3.35627037983798 -0.53510412361236
 6  17.59912516161616  3.76970481208121 -1.35057899309931
 6  17.08739132883288  4.07729262096210 -2.80969319351935
 6  18.26312571867187  5.00866613191319 -0.57061652055206
 1 -2.93692941574157  1.14221849724973  3.61840230863086
 1 -6.28655663446345  5.44583996439644  0.80583957565757
 1 -8.74951535873587  1.29150945384538 -3.26937241604160
 1 -3.65117618241824 -3.29184449984999  1.81096915771577
 1 -1.84466159005901 -1.05024268586859  2.80442171827183
 1 -3.13930370947095 -2.58088124932493  4.27315085908591
 1 -3.45068586128613 -0.95079498389839  4.64752678247825
 1 -4.53684619631963 -1.79298837973797  3.80933488398840
 1 -2.22900821452145 -3.33473299059906 -0.29202982678268
 1 -1.60903873627363 -1.88734785108511  0.37744586618662
 1 -0.43803923742374 -2.91480277587759  2.19562378107811
 1 -1.20747546914691 -4.40994812601260  2.00131192919292
 1 -1.73237335113511  3.64323384778478  4.16521243094309
 1 -2.65285627572757  4.70856806280628  4.68739499719972
 1 -3.18371136613661  3.13999499699970  5.25640064606461
 1 -5.66397946184618  6.52873706810681  2.58124344574458
 1 -10.20162929642964  3.04726538363836 -3.20174342604260
 1 -10.26021681958196  4.69498334243424 -2.85313560426043
 1 -9.67730753055306  4.31950036403640 -5.37011221352135
 1 -8.50845035443544  5.04558430383038 -4.34944489948995
 1 -8.03398324732473  3.52443180198020 -4.67104702950295
 1 -8.60963855345535 -1.09447999089909 -4.69194019231923
 1 -8.39093007600760 -2.70793419851985 -4.14724736173617
 1 -9.68540862036204 -1.99919674307431 -3.25009191589159
 1 -4.23046040344034 -3.91011583818382 -1.29635292219222
 1  2.72888402140214 -5.72534047704770  1.15821177807781
 1  2.52971371477148 -4.99340631673167 -0.42318576817682
 1  3.66534865716572 -3.98372765456546  2.12083709130913
 1  2.70319530623062 -3.26864248534854 -1.47734027502750
 1  3.96200081338134 -1.82117567686769 -1.20285275577558
 1  4.28761093509351 -3.52321605080508 -1.95017394329433
 1  4.88625866676668 -1.25357178117812  0.71743362686269
 1  5.38981750905091 -2.60278191059106  1.72360724102410
 1  6.72414994169417 -3.45523871597160 -0.00835295129513
 1  6.48499866026603 -2.19203681268127 -1.05358595409541
 1  7.12295122642264 -0.65512883798380  0.80468771427143
 1  7.73020512341234 -2.39223580668067  1.75264965026503
 1  8.77473158245824 -1.61321959715972 -1.03010634873487
 1  8.86621113981398 -3.77949672107211 -0.43840763316332
 1  10.46776611741174 -3.21866606870687 -0.28148826232623
 1  9.53444250565057 -3.45149624112411  1.20708115081508
 1  9.59785893649365  0.31000672687269  0.34047941174117
 1  10.11194129162916 -0.82406894079408  1.53172271227123
 1  11.99868500980098 -1.81236126802680 -0.34370874407441
 1  11.10991707840784 -0.71564446934693 -1.20619195279528
 1  11.64510554405441  1.19689411861186 -0.12955251045105
 1  12.46469129242924  0.27784897629763  1.29147742794279
 1  13.48835563626363  0.29099353165317 -1.72068430713071
 1  14.63637297559756 -0.86186439913991  0.67767344734473
 1  13.84481005200520 -1.72965198149815 -0.82127844934493
 1  15.54136512491249 -0.89411260946095 -1.02730962346235
 1  13.77303549774978  2.56342096119612 -0.63277506520652
 1  14.70090679097910  1.85543583278328  0.75247246114611
 1  16.38288994479448  1.18049666236624 -1.18456494719472
 1  15.27198278167817  2.40230414321432 -2.14410579027903
 1  15.54754615921592  4.11923730173017 -0.62295429352935
 1  16.67841061116112  3.33134977637764  0.46579648004800
 1  18.36669035043504  2.86761825302530 -1.54783386298630
 1  16.32767348774877  4.98421495039504 -2.85658801860186
 1  17.96908283178318  4.43837335063506 -3.44183878897890
 1  16.59601980218022  3.40671174117412 -3.30878891349135
 1  18.08868491569157  4.99719093659366  0.49027069126913
 1  19.43197071937194  4.94926907910791 -1.09035594999500
 1  17.68083963486349  5.85607511061106 -0.98733279457946
 1 -4.96915221662166 -7.95329476257626 -0.05346888458846
 1 -6.55556998729873 -7.03477056365637  0.60587409490949
 1 -4.79110727932793 -6.81747332293229  1.60091454805481
 8 -7.78422601420142  6.81835833663366 -0.38445622962296
 1 -9.13126142324232  6.46219186408641 -1.84200988378838

