%nproc=4
%Mem=2GB
# td=(NStates=1) iop(3/107=0140000000,3/108=0140000000) iop(3/107=0140000000,3/108=0140000000) CAM-B3LYP/6-31G(d,p) 

TD

0 1
12 -6.72520509260926  0.67662680678068  0.07068468796880
 6 -4.54414152065207 -2.09896831863186  0.46023630063006
 6 -3.96477829322932  2.79264089718972  0.78182106370637
 6 -8.90927363206321  3.21666569066907 -0.40616011771177
 6 -9.25501359895990 -1.65563859345935 -0.74087414611461
 7 -4.67188226012601  0.34399379707971  0.66429546164616
 6 -4.00577784338434 -0.94082378917892  0.83124367976798
 6 -2.41563498209821 -0.58362012121212  1.13451551385138
 6 -2.40383034883488  0.89182933173317  1.49337149964996
 6 -3.84468073097310  1.40312039723972  0.93378815351535
 6 -2.04589087478748  0.95200699659966  3.05400996379638
 6 -1.46556530493049 -0.94771733513351 -0.08572724642464
 6 -0.14680279857986 -1.56546825342534  0.43083215671567
 6  0.74579565876588 -1.53277051395139 -0.78022619641964
 8  0.70221028912891 -0.92625523802380 -1.84983597379738
 8  2.01071135773577 -2.12683298189819 -0.49805472797280
 7 -6.41049279147915  2.70474084408441  0.15758950685068
 6 -5.39681024192419  3.33469211241124  0.70894719091909
 6 -5.66702091729173  4.74747443224322  0.76593146174617
 6 -6.93541425482548  4.91333742424243  0.37041362466247
 6 -7.52563426732673  3.58643745214521 -0.07140230883088
 6 -4.65904082438244  5.81280871137114  0.94499216721672
 6 -7.68857041834183  6.17110403050305  0.07162668636864
 8 -7.29628354455446  7.30530214681468  0.35030288708871
 7 -8.66390994449445  0.70180103930393 -0.44652730183018
 6 -9.47587125952595  1.82591732703270 -0.59462051435144
 6 -10.87061369166917  1.59671954305431 -0.72983876507651
 6 -11.02086644414441  0.23172407680768 -0.79750060556056
 6 -9.60527219051905 -0.26663482668267 -0.66121819851985
 6 -11.65750252555255  2.55557175027503 -1.07490214101410
 6 -12.22166528702870 -0.44922848514851 -0.95761389508951
 6 -12.37186404850485 -0.73091525672567 -2.46901969666967
 7 -6.98950543344334 -1.38410097139714 -0.08406105060506
 6 -8.11092375397540 -2.27272726942694 -0.47755095309531
 6 -7.48404598969897 -3.65351267366737 -0.55850686078608
 6 -6.16747236843684 -3.58352751365137 -0.19275753635364
 6 -5.88340462916292 -2.19753856835684  0.11629781408141
 6 -8.24489301280128 -4.91396877467747 -0.82575539143914
 6 -5.01331753625363 -4.41913771187119 -0.02962493679368
 8 -4.83980572927293 -5.60422096039604 -0.23048254165417
 6 -3.90973469886989 -3.46862742194219  0.51259590679068
 6 -3.54221773267327 -3.73670984648465  1.90847056005601
 8 -4.09660490059006 -4.22993972877288  2.84465313511351
 8 -2.04569624452445 -3.65776208150815  1.84798473767377
 6 -1.31953047514751 -4.01350644074407  3.09890431563156
 6  2.98868076087609 -2.18844402130213 -1.61958320242024
 6  4.08021178857886 -1.10859786088609 -1.04023955625563
 6  5.06527728312831 -0.94855172657266 -1.88053425502550
 6  5.25077906170617 -1.90006314101410 -3.13972095429543
 6  6.05930975557556  0.08953130023002 -1.62961952045204
 6  7.41045973997400 -0.45739152125212 -0.83082982028203
 6  8.36704926522652  0.58405404000400 -0.41664014451445
 6  9.70270335973597 -0.27793471377138  0.20558225252525
 6  9.31728924522452 -0.88305712041204  1.65848021682168
 6  10.75051738173817  0.70083493769377  0.24263910231023
 6  12.19736500700070  0.04224553175317  0.49195750695069
 6  13.31044258685869  1.04729200390039  0.48268116651665
 6  14.69696603180318  0.22402568066807  0.48129279137914
 6  14.79943493159316 -0.56537881838184  1.97357728172817
 6  15.97544717311731  1.18316321832183  0.31824502980298
 6  17.25462494059406  0.67375259965997  0.25546867296730
 6  18.16254580198020  1.68695588678868 -0.46030617741774
 6  19.51010321142114  1.35612410721072 -0.68188827252725
 6  19.66011581288129  0.34264969526953 -1.92272806400640
 6  20.43695086398640  2.52462388038804 -0.79738483438344
 1 -3.47211785008501  3.23506475747575  1.28404780648065
 1 -9.68873285578558  3.99152823792379 -0.11061469536954
 1 -10.01668416001600 -2.65769616891689 -0.93443626952695
 1 -1.93073559035904 -1.71931954975498  1.81592164046405
 1 -1.45463480208021  1.65001547774777  0.98663511691169
 1 -1.53076446014601  0.31178949334934  3.03714442554255
 1 -2.03846202010201  2.06427500390039  3.15936205400540
 1 -2.69150148264826  0.77346523182318  3.54603047214722
 1 -2.10810983128313 -1.39222049504950 -1.20277806460646
 1 -1.28521369036904 -0.03538501140114 -0.75291508230823
 1  0.17635563386339 -0.72854428772877  1.25269113431343
 1 -0.06017973777378 -2.66640297409741  0.77782801490149
 1 -3.89142367276728  5.16320414831483  0.85309026672667
 1 -4.93313359395940  6.85253792969297  0.45766267236724
 1 -4.54575560376038  6.16920588158816  2.32901067336734
 1 -8.84166718081808  5.94628973817382 -0.11997837363736
 1 -12.20874042764276 -1.35194606210621 -0.60854528172817
 1 -13.34237045204520  0.09149554935493 -1.04198183458346
 1 -13.07916573967397 -1.81055317071707 -2.60897801490149
 1 -12.12972993679368  0.17916533803380 -3.21781395089509
 1 -11.46204302870287 -1.26669998699870 -2.52664927232723
 1 -8.97853703700370 -4.76451300690069 -1.88079030703070
 1 -7.74077929252925 -5.86130614321432 -0.84875452735273
 1 -9.43560084008401 -5.13901586278628 -0.38607399789979
 1 -2.84943452485249 -3.62845657055705  0.00734242744274
 1  3.40382199759976 -3.19395666946695 -1.29114483158316
 1  2.55424971377138 -2.28840475547555 -2.40359059435944
 1  4.02200952865287 -0.77786053445345 -0.14074047244725
 1  4.41343440044004 -1.85293876637664 -4.21598171317132
 1  6.39074265266527 -1.77245592099210 -3.66038726262626
 1  5.35844967236724 -2.80742335663566 -2.61342552635263
 1  6.41208163006301  0.57588292569257 -2.61957457465746
 1  5.40979608900890  0.88165371317132 -0.73767803120312
 1  7.08477965686569 -1.34131232833283  0.28058978057806
 1  7.93655905430543 -1.38102689298930 -1.67622709860986
 1  8.93477560896090  1.19543013781378 -1.18425121042104
 1  7.92786128422842  1.30071525972597  0.27022273067307
 1  9.94795724282428 -1.30148759245925 -0.59631678927893
 1  8.43975621992199 -1.65940475617562  2.04279264006401
 1  9.84949101850185 -1.63359724092409  2.05195708710871
 1  9.41017422902290  0.12809158675868  2.20303160826083
 1  10.67524116191619  1.22331509140914 -0.55457262886289
 1  10.39089883648365  1.27789666526653  1.16122000230023
 1  11.99134667686769 -0.90605304480448  1.60192387568757
 1  12.26335848984898 -0.84940316091609 -0.36966996449645
 1  13.44882975297530  1.98488803380338 -0.45779468406841
 1  13.43158520332033  1.71779603090309  1.38242403180318
 1  14.72587401320132 -0.42452996899690 -0.42586077727773
 1  14.75647554745474  0.23301369686969  2.89000177317732
 1  13.98319559305931 -0.98383605550555  2.13482098019802
 1  15.63879091219122 -1.39742332543254  1.75018149584959
 1  15.78598973387339  1.81016100950095 -0.76095607030703
 1  15.89923395599560  1.67280681618162  1.36817514071407
 1  17.80442175727573  0.14287745834583  1.34948513521352
 1  17.31851937613761 -0.31630346114611 -0.34866624402440
 1  17.12491749884989  2.16088263606361 -1.18167115541554
 1  18.40301029712971  3.00852475937594  0.17120379087909
 1  20.11247380858086  0.95631847804781  0.39861321212121
 1  19.44808312631263  0.89689473907391 -2.95924805000500
 1  20.63969825982598 -0.03847564936494 -2.03871800520052
 1  18.79939266626663 -0.37842556095610 -1.92904097879788
 1  20.56571334993499  2.79477905700570  0.20644139773977
 1  21.49334707500750  2.12598918161816 -0.93703641864186
 1  20.27501415431543  3.70978846604660 -1.68271306760676
 1 -0.27075270037004 -3.63418616801680  2.93585193319332
 1 -0.96568624962496 -5.31217849154916  3.60899153575358
 1 -1.73876789008901 -3.48409688678868  4.07257141034103
 8 -11.71928030233023  3.85547034623462 -1.00670248394839
 1 -12.70800131163116  2.09946118621862 -1.09827043204320

