%nproc=4
%Mem=4GB
# td=(NStates=1) iop(3/107=0140000000,3/108=0140000000) iop(3/107=0140000000,3/108=0140000000) CAM-B3LYP/6-31G(d,p) 

TD

0 1
12 -5.66704821142114  1.26667154145415  0.18967757295730
 6 -5.08511889908991 -2.09101756505651 -0.26426329312931
 6 -3.34642343144314  1.18022830763076  2.80367574087409
 6 -6.21146994269427  4.52392565676568  0.61401160996100
 6 -7.95598136523652  1.16305715641564 -2.45976364986499
 7 -4.29327358065807 -0.30121831363136  1.10813215201520
 6 -4.27158068556856 -1.57644134573457  0.69822217181718
 6 -3.25021814631463 -2.36964026682668  1.46471083478348
 6 -2.91890506150615 -1.29495238613861  2.58663521962196
 6 -3.54451187858786 -0.00526315401540  2.16149073427343
 6 -3.59195223462346 -1.69503294469447  3.92826552595260
 6 -1.93066826002600 -2.67641505080508  0.68881418691869
 6 -1.07058870237024 -3.73188076867687  1.36606019401940
 6  0.25068016851685 -3.89063290399040  0.66440463516352
 8  0.54865492979298 -3.38028534213421 -0.34577081128113
 8  1.07835468116812 -4.66650626792679  1.31240584788479
 7 -4.90884170047005  2.64302367926793  1.45357558925893
 6 -3.99037112691269  2.44495191689169  2.44243484678468
 6 -3.83640314401440  3.63955245744574  3.19278983518352
 6 -4.61545209790979  4.62102363066307  2.58486775807581
 6 -5.27007311151115  3.95412350755075  1.47292338463846
 6 -2.83239860296030  3.82749012481248  4.35818000740074
 6 -4.66478300890089  6.07936535703570  2.92194169896990
 8 -4.05442549054905  6.56307419541954  3.81616551645165
 7 -6.84848864876488  2.68789868566857 -0.70385204150415
 6 -6.94665738053805  4.01972158935894 -0.45036672537254
 6 -7.99779496589659  4.61545827062706 -1.16073018251825
 6 -8.47795724902490  3.62373930383038 -2.03577252165217
 6 -7.80676956745675  2.38239424822482 -1.62387833433343
 6 -8.24399739063906  6.06651656105611 -1.24625413421342
 6 -9.48777314061406  3.79558995719572 -3.13869850265027
 6 -8.87421887558756  3.93418156435644 -4.51848825282528
 7 -6.42285070407041 -0.13051806950695 -1.04503959595960
 6 -7.36194572417242 -0.05202127072707 -2.09530374107411
 6 -7.42415992319232 -1.24374607820782 -2.81482400500050
 6 -6.63495304410441 -2.15348492029203 -2.09170533623362
 6 -6.05775419081908 -1.36627019211921 -1.09829595999600
 6 -8.38652411021102 -1.64033415941594 -3.87803469966997
 6 -6.22513618071807 -3.49230481438144 -2.02783633873387
 8 -6.57332172767277 -4.50248794719472 -2.64387065216522
 6 -5.07476603870387 -3.50874892749275 -0.84253657345735
 6 -5.31591906930693 -4.60549599069907  0.16777044884488
 8 -5.64181995359536 -4.31997100520052  1.27951431483148
 8 -5.04342404060406 -5.88947014341434 -0.38058120272027
 6 -5.32911047524752 -6.98079993329333  0.50319214901490
 6  2.32401337453745 -5.12032315251525  0.61543549794980
 6  3.46175071007101 -4.22770293119312  0.97730563036304
 6  4.09689908010801 -3.39542241234123  0.08042167716772
 6  3.80101444034403 -3.20285522682268 -1.38001750625063
 6  5.16397282308231 -2.50239528712871  0.61045484428443
 6  6.63021789308931 -2.84862778797880  0.10746221362136
 6  7.76609193279328 -1.97335669116912  0.61505719621962
 6  9.07140796209621 -2.17501233483348 -0.03432121462146
 6  9.66780316201620 -3.60837147754775  0.25133167546755
 6  9.95446602570257 -0.93740397779778  0.27492000750075
 6  11.37803510591059 -0.86453606050605 -0.32785155135514
 6  12.13575126372637  0.37261188868887 -0.00863401580158
 6  13.59263171897190  0.55152002190219 -0.66682144534453
 6  14.45887418641864 -0.69104850745075 -0.62815696659666
 6  14.24388032763276  1.74928109970997 -0.17622687748775
 6  15.40706489688969  2.23944197239724 -0.90855585058506
 6  16.00756334073407  3.52939769256926 -0.48903951715172
 6  17.34092934203420  3.93088092969297 -1.23793772897290
 6  17.09509209890989  4.05193008470847 -2.75835806000600
 6  17.97728713481348  5.24722998829883 -0.74170362926293
 1 -2.58667439023902  1.34970924632463  3.66579704810481
 1 -6.35389336813681  5.63109849024903  0.89345833753375
 1 -8.61485189238924  1.21340164306431 -3.26204168296830
 1 -3.66566763156316 -3.16317163256326  1.91935999679968
 1 -1.84365148904890 -1.21064872647265  2.87585886198620
 1 -3.19566934603460 -2.57231039223922  4.37555109910991
 1 -3.46607740044004 -1.00161006540654  4.73210524032403
 1 -4.60459297099710 -2.01479055995600  3.82550650115012
 1 -2.14196951065107 -3.19801931923192 -0.44934555835583
 1 -1.52247007940794 -1.78834795109511  0.57884600620062
 1 -1.06394182768277 -3.46074737033703  2.53359757845785
 1 -1.58778349995000 -4.56367349854985  1.59448124612461
 1 -1.78555866966697  3.68870839523952  3.93996990669067
 1 -2.78358934903490  4.75555276127613  4.82062832053205
 1 -3.00550354535454  3.19678067556756  5.22269727572757
 1 -5.54850791469147  6.86522071647165  2.43843916531653
 1 -10.34168330183018  2.88870952805281 -3.21889514121412
 1 -10.00465126302630  4.75393923802380 -2.88805909660966
 1 -9.71681148094810  4.06525493949395 -5.32241744404440
 1 -8.32631214061406  4.86226597199720 -4.79443939893989
 1 -8.23964381338134  3.06491585038504 -4.82755268006801
 1 -8.17372496209621 -1.06813735663566 -4.75383638193819
 1 -8.28291927492749 -2.77944134923492 -3.88062069906991
 1 -9.48289836933693 -1.25878270167017 -3.64912181888189
 1 -4.07851520892089 -3.80551537813781 -1.39524281118112
 1  2.27321845484548 -6.07420536353635  1.04792074897490
 1  1.98547929132913 -5.00789776587659 -0.41109455905591
 1  3.82469459175918 -4.27917719951995  1.90985599319932
 1  2.62741772847285 -3.40525614671467 -1.55932847384738
 1  3.83573818711871 -2.08697225652565 -1.77543001350135
 1  4.63058523252325 -3.65492922212221 -1.75157408330833
 1  4.79350939183918 -1.34138056205621  0.22469435293529
 1  5.06164469176918 -2.53344497689769  1.72804768506851
 1  6.83991151785179 -4.02957614971497  0.09044692869287
 1  6.40483064346435 -2.71838944794479 -1.02699329482948
 1  7.46001493279328 -0.85054837993799  0.66804404990499
 1  7.92038414131413 -1.99612619571957  1.61033541884188
 1  9.07160126942694 -2.27849612481248 -1.24996833493349
 1  8.58976349504950 -4.41896066746675  0.33593980158016
 1  10.42672201300130 -3.65114931703170 -0.27959807330733
 1  10.02051111251125 -3.66105719721972  1.36896733943394
 1  9.39670882148215 -0.12015628942894  0.11181654545455
 1  10.26397649514951 -1.03530006390639  1.37061660166017
 1  11.95419056035604 -1.87725775767577 -0.28544291749175
 1  11.13457954465447 -0.84186709160916 -1.42361369496950
 1  11.60170120362036  1.34675910511051 -0.26136569176918
 1  12.18498332163216  0.27441863326333  0.97042532273227
 1  13.50797759845985  0.67275170747075 -1.76693893259326
 1  14.76949628792879 -0.97884609730973  0.35118079807981
 1  13.91989756075608 -1.57869688598860 -0.96806312781278
 1  15.40191117951795 -0.61984518271827 -0.99949684218422
 1  13.45928412261226  2.55127974707471 -0.21215300300030
 1  14.35776247654766  1.70842113131313  0.91655886978698
 1  16.18531018681868  1.34678329102910 -1.00110660136014
 1  15.16172175557556  2.34612852565256 -1.93487486718672
 1  15.22830423502350  4.36381175917592 -0.64281627972797
 1  16.26290906100610  3.76219286068607  0.48387828822882
 1  17.98908258965897  3.10712220342034 -1.13453253285329
 1  16.14718543894389  4.77849437833784 -3.03358571837184
 1  17.97823374687469  4.48180769406941 -3.11543614871487
 1  16.77609780998100  3.11837290729073 -3.29734776937694
 1  18.08678472567257  5.29455067256726  0.31712337653765
 1  18.83716123842384  5.44548870107011 -1.31934884928493
 1  17.42692424332433  6.15611511461146 -0.93805786708671
 1 -4.96346164756476 -7.99349878297830 -0.05784932263226
 1 -6.25013944424443 -6.97547463406341  0.67036054355436
 1 -4.69976814541454 -6.77137871347135  1.42195665226523
 8 -7.88952654425443  6.89068556935694 -0.40254803880388
 1 -9.08904720182018  6.27446309120912 -1.93418910171017

