%nproc=4
%Mem=2GB
# td=(NStates=1) iop(3/107=0140000000,3/108=0140000000) iop(3/107=0140000000,3/108=0140000000) CAM-B3LYP/6-31G(d,p) 

TD

0 1
12 -6.82708528062806  0.68102724682468  0.15805342484248
 6 -4.54891199769977 -2.10199862166217  0.40284056105611
 6 -4.11351316671667  2.69806143924392  0.94131701330133
 6 -8.75557826252625  3.12587661176118 -0.09947944964496
 6 -9.30665876347635 -1.53485651525152 -0.62818287698770
 7 -4.74955002690269  0.31094049174917  0.53073210531053
 6 -3.92108937453745 -0.94365407220722  0.49901045644564
 6 -2.52884630323032 -0.76022778197820  1.02358442074207
 6 -2.39104907070707  0.71928207700770  1.16495865836584
 6 -3.85900216311631  1.23004308950895  0.88749352405240
 6 -2.02724901060106  1.26469826572657  2.68644320712071
 6 -1.70623937233723 -1.28474103750375 -0.21306998069807
 6 -0.27228534683468 -1.63162486908691  0.32396146964696
 6  0.80277135633563 -1.56279351625163 -0.78540671447145
 8  0.56337640574057 -1.21036364886489 -1.94613560376038
 8  1.89741002760276 -2.27384768336834 -0.39426434893489
 7 -6.34157589978998  2.50036040604060  0.18514226212621
 6 -5.24611517241724  3.22753139633963  0.56715301150115
 6 -5.48147236243624  4.74583426822682  0.66119098769877
 6 -6.89501021442144  4.86697278777878  0.21702828612861
 6 -7.39728143204320  3.51507031543154  0.06951178257826
 6 -4.52498741904190  5.81833926442644  1.08032570057006
 6 -7.71381294259426  6.05837275737574  0.11038056175618
 8 -7.22521643784378  7.19653126972697  0.17770562736274
 7 -8.81739529302930  0.70834169336934 -0.09930257935794
 6 -9.40273394579458  1.88983371867187 -0.26812786508651
 6 -10.66270290059006  1.75845571667167 -0.71916769796980
 6 -10.84188854635464  0.40288119251925 -0.91050190569057
 6 -9.54163582688269 -0.24091225442544 -0.59511158785879
 6 -11.75704247954795  2.65056124922492 -0.79861451225123
 6 -12.05415853635363 -0.25727929022902 -1.22293042674267
 6 -12.12810967306731 -0.65476764196420 -2.79366216091609
 7 -6.96861334423442 -1.41263382468247 -0.09954259875988
 6 -8.05429809140914 -2.02153214991499 -0.44034723272327
 6 -7.59231681678168 -3.48295561796180 -0.38389940004000
 6 -6.28650427162716 -3.56081524242424 -0.24902316291629
 6 -5.91469775847585 -2.26579539403940 -0.08665248094809
 6 -8.51720024352435 -4.50623800160016 -0.66279909580958
 6 -5.22431863636364 -4.48001379947995  0.13130115581558
 8 -5.12405415411541 -5.71500203850385  0.10845135173517
 6 -3.98172189758976 -3.56344690389039  0.41594624182418
 6 -3.38343185408541 -3.76736291179118  1.74746445944595
 8 -3.85729096919692 -4.03435016981698  2.83617228702870
 8 -2.18277995289529 -3.68809511481148  1.76784672387239
 6 -1.35451397349735 -4.12109719981998  2.95010943614361
 6  3.03249514231423 -2.43789896679668 -1.37604884898490
 6  4.14309807720772 -1.57758475957596 -0.99389492179218
 6  5.04216497189719 -1.18234510591059 -1.81943814541454
 6  5.13093707750775 -1.92492562726273 -2.98789577177718
 6  6.20703452805281 -0.19364701760176 -1.46333289178918
 6  7.34213290729073 -0.76292207430743 -0.84583132043204
 6  8.29693225352535  0.28956459105911 -0.38739722022202
 6  9.61376446584659 -0.36277319761976 -0.04641294699470
 6  9.51384890119012 -1.15979479417942  1.34854922372237
 6  10.73129545954595  0.75218007220722  0.42423726212621
 6  12.30922619311931  0.13187449464946  0.38049636083608
 6  13.39423096569657  1.19721699639964  0.37023992239224
 6  14.70041637683769  0.53233651175118  0.45509017111711
 6  14.99968495659566 -0.09535181568157  2.08353827782778
 6  15.68042767116712  1.74973987598760  0.20621382668267
 6  17.07004648274827  1.00285550995099 -0.12606948084808
 6  18.20702024942494  2.02061925312531 -0.23064321112111
 6  19.59062126322632  1.47675617041704 -0.45434551825182
 6  19.65205500680068  0.55693112341234 -1.73492928412841
 6  20.60254742364236  2.59531094909491 -0.37869296519652
 1 -3.21900253855385  3.23241449244924  1.24580398209821
 1 -9.63874785728573  3.82235132023202 -0.06740037393739
 1 -10.34689718131813 -1.96163656295630 -0.69191201710171
 1 -2.50619313611361 -1.42819043684368  2.03591363966397
 1 -1.43960329892989  1.35137561376138  0.41211766516652
 1 -0.99142052575257  1.37720603500350  2.79325003610361
 1 -2.26205437933793  2.11453002940294  3.38514463226323
 1 -2.76487882038204  0.61147903320332  3.48296416551655
 1 -2.26947596789679 -2.24732600560056 -0.64175196199620
 1 -1.65163033203320 -0.82151362426243 -1.31135092589259
 1  0.15926392469247 -0.71364279757976  1.04893075827583
 1 -0.05674939473947 -2.29110544434443  0.77611784388439
 1 -3.82138666906691  5.82041986988699  0.16195115281528
 1 -4.91192147274727  6.64707738363836  0.87257416351635
 1 -3.93876490469047  5.74894385538554  1.98906667896790
 1 -8.95777879197920  5.73931904110411 -0.18421479727973
 1 -12.13755330893089 -1.43663453095310 -0.62894732193219
 1 -12.71946816181618  0.42699909970997 -1.16883451985199
 1 -13.06275409850985 -0.89940205560556 -3.17443456055606
 1 -11.63250021382138  0.19633705520552 -3.38579074857486
 1 -11.33023984838484 -1.57104042104210 -3.03255986338634
 1 -9.57064624792479 -4.30200675627563 -1.49645187318732
 1 -7.94130934553455 -5.44286429902990 -0.79626927882788
 1 -9.04159143914391 -4.40258221942194  0.14308891839184
 1 -3.30935051645165 -3.63744746964696 -0.72309061586159
 1  3.09976159155916 -3.49491676547655 -1.43185890299030
 1  2.55803009180918 -2.26010192519252 -2.33749398469847
 1  3.77163449114911 -1.18263101150115 -0.04790118851885
 1  4.30992404940494 -1.75582905540554 -3.44123423842384
 1  5.92254583298330 -1.50245892129213 -3.71303252715272
 1  5.28920274767477 -3.03600621492149 -2.80315449924993
 1  6.57438786068607  0.67852318971897 -2.58063068026803
 1  5.66091120052005  0.65307085488549 -0.69914417781778
 1  7.19610078897890 -1.55968416551655 -0.07391566996700
 1  7.81549694809481 -1.33059184948495 -1.90241971787179
 1  8.41196332773277  1.09679027382738 -1.27180996629663
 1  7.96045454355436  1.21187637583758  0.38856456485649
 1  10.20847329442944 -0.99793723742374 -0.68629578717872
 1  8.47746999129913 -2.08764758045805  1.54862322312231
 1  10.18035410481048 -1.85463934513451  1.25252714411441
 1  9.74431764336434 -0.56476769916992  2.41286259135914
 1  11.04754839263926  1.64541730163016 -0.33720089168917
 1  10.87184693129313  1.34325320092009  1.54260814111411
 1  12.11667921012101 -0.40241268076808  1.51469515281528
 1  12.12722487648765 -0.55118333893389 -0.39373237073707
 1  13.27944281428143  1.69918946394639 -0.41974087868787
 1  13.13030507530753  1.87572182348235  1.06025181458146
 1  14.98342976877688 -0.37804532053205 -0.26286447764776
 1  14.44052395229523  0.91869226472647  2.77896066906691
 1  14.56333360686068 -1.13089076097610  2.22536003410341
 1  15.87545457855786 -0.32863644674467  2.62783926162616
 1  15.28002913781378  2.43423341674167 -0.49544951965197
 1  15.86566059865987  2.07589712521252  1.23396171937194
 1  17.27817913301330  0.02153532413241  0.69682986968697
 1  16.92315984018402  0.26669483868387 -0.95769714711471
 1  17.75783079017902  2.60572712051205 -0.97571055935594
 1  18.22737273337334  2.67313122002200  0.37110378087809
 1  19.94285684688469  1.08849169536954  0.15484883568357
 1  19.63495181318132  1.42942799239924 -2.59566169136914
 1  20.56623091309131 -0.19174097589759 -1.79880401380138
 1  18.89506223322332 -0.14297201560156 -1.83019109380938
 1  20.42694947354735  3.04503408250825  0.73997475107511
 1  21.65274301460146  2.37573415611561 -0.43005572057206
 1  20.28158481138114  3.38859634683468 -1.30765556185619
 1 -0.44699032413241 -4.41967471687169  2.00803915191519
 1 -1.85472515351535 -4.79471674537454  3.34165480208021
 1 -1.55851986528653 -3.15027350445045  3.63728788198820
 8 -11.63550192449245  3.87620241944194 -0.76474828852885
 1 -12.57423793529353  1.82261350145014 -1.05184578957896

