%nproc=4
%Mem=2GB
# td=(NStates=1) iop(3/107=0140000000,3/108=0140000000) iop(3/107=0140000000,3/108=0140000000) CAM-B3LYP/6-31G(d,p) 

TD

0 1
12 -6.76432900500050  0.59371851595159  0.19130675017502
 6 -4.42459956645665 -1.96953537533753  0.38865914291429
 6 -3.95871768716872  2.86794842794279  0.90045292689269
 6 -8.95723842854285  3.14072809690969 -0.17816731843184
 6 -9.25674377197720 -1.79670269986999 -0.44147420612061
 7 -4.63117818971897  0.39824922262226  0.47479651175117
 6 -3.89016628222822 -0.75607531433143  0.54864541994199
 6 -2.51397481608161 -0.46854861406141  0.89883194549455
 6 -2.41700166596660  1.07356750555055  1.10827298979898
 6 -3.80464672757276  1.38543862906291  0.80087486218622
 6 -2.10079636533653  1.54321611751175  2.51261582438244
 6 -1.51155990439044 -1.02892545594559 -0.26504517821782
 6 -0.01582970127013 -1.00017172377238  0.30412948644864
 6  0.78703978317832 -1.07269450635064 -0.88856703050305
 8  0.75155522362236 -0.46006861936194 -2.01299228942894
 8  1.66190647724773 -2.10324062266227 -0.79090401290129
 7 -6.51179292149215  2.62740311031103  0.18296204410441
 6 -5.42600316121612  3.24299294249425  0.54686098229823
 6 -5.74048826402640  4.79256894169417  0.53930879947995
 6 -7.21702241564156  5.03055914641464  0.17301388468847
 6 -7.67143884778478  3.45892470087009 -0.00225539413941
 6 -4.76748166846685  5.92604003450345  0.68667633563356
 6 -8.06506806810681  6.13655057515752  0.00326985068507
 8 -7.45516943314331  7.34623624022402  0.05343320012001
 7 -8.74518807230723  0.68215907510751 -0.22360500960096
 6 -9.45876954935494  1.83302803810381 -0.35005605790579
 6 -10.87557418771877  1.50969084018402 -0.38324410561056
 6 -11.03111746924692  0.13713461786179 -0.65435629112911
 6 -9.60843250655065 -0.34255241844184 -0.40285236193619
 6 -11.97079385468547  2.62693888698870 -0.57808245904590
 6 -12.27827094759476 -0.64368793109311 -0.90860899459946
 6 -12.51453831593159 -1.12027419261926 -2.35262805750575
 7 -6.91840832373237 -1.44790735203520  0.01069842534253
 6 -8.02099476107611 -2.29298929562956 -0.17022022002200
 6 -7.64687227232723 -3.66768409080908 -0.21785279537954
 6 -6.19639526072607 -3.73368252915291  0.09009074847485
 6 -5.81015730443044 -2.28541735623562  0.16026221052105
 6 -8.54869339283928 -4.88765614341434 -0.57492030793079
 6 -5.11898810331033 -4.50464626272627  0.16602462816282
 8 -4.93298504720472 -5.65791632993299 -0.00842033543354
 6 -3.94426815221522 -3.31469202840284  0.43951859905991
 6 -3.25844935583558 -3.63092926842684  1.83654336733673
 8 -3.89285452555256 -3.95545228002800  2.74076274607461
 8 -1.73030470537054 -3.37495380068007  1.72472241144114
 6 -0.91154967706771 -3.84396948704870  2.86057048224822
 6  2.75629752255225 -2.15999117601760 -1.69999124322432
 6  3.99972373977398 -1.33307030813081 -1.27177270957096
 6  5.12403315871587 -1.07740461186119 -1.95619182078208
 6  5.33190717451745 -1.68957209190919 -3.43757073927393
 6  6.15189901450145 -0.18323597649765 -1.57065362386239
 6  7.32150084408441 -0.70897667976798 -0.96259299659966
 6  8.49122168246825  0.13009864446445 -0.68359684018402
 6  9.64069715911591 -0.54236115641564 -0.41453975967597
 6  9.53932144844484 -1.34835365006501  0.46966133493349
 6  10.90139246924693  0.49438429262926 -0.03656881848185
 6  12.34517978847885 -0.25966465926593  0.17538584978498
 6  13.44209575217522  0.87297457215722  0.47716061446145
 6  14.79040537573757  0.17698097619762  0.54968963106311
 6  14.98306329442944 -0.20715299579958  1.96686661066107
 6  15.79250887928793  1.44016891889189  0.38754195949595
 6  17.16463594169417  0.83891911631163  0.43205633173317
 6  18.03236278367837  1.86792398359836  0.10455030823082
 6  19.68051025212521  1.19049754455446  0.18066798309831
 6  20.03501330263027  0.21690712101210 -1.06911270247025
 6  20.48186535543554  2.32129354735474  0.11799670377038
 1 -3.23146378467847  3.47528877987799  0.79507890959096
 1 -9.67851183368337  3.90268935403540 -0.20300393429343
 1 -10.25362785438544 -2.51483188248825 -0.64045687158716
 1 -2.18381089788979 -0.88735635343534  1.80287033533353
 1 -1.65064440304030  1.49918039423942  0.00875732913291
 1 -0.83514489818982  1.28302661706171  2.68987969906991
 1 -2.08322649654965  2.60447902430243  3.12348846664666
 1 -2.59098143064306  0.90637852315231  3.09571544064406
 1 -1.87067608790879 -2.09677095009501 -0.52910069686969
 1 -1.44001917091709 -0.53154462736274 -1.14085387618762
 1 -0.04223622532253  0.02507107380738  0.83491935713571
 1  0.24465074527453 -1.91641797559756  1.08821905400540
 1 -4.19583411381138  6.09176700460046 -0.36317135943594
 1 -5.22226250685069  7.09003167906791  0.98877578367837
 1 -3.92606363456346  5.72973193419342  1.67061483378338
 1 -9.05413842794279  6.08876398559856 -0.35368174397440
 1 -12.49462901650165 -1.58605947344734  0.08322389518952
 1 -13.34222043704370 -0.18108170837084 -0.48728636503650
 1 -13.33143096619662 -2.07364948034803 -2.69570668776878
 1 -12.86623358715872 -0.13559613811381 -2.98479064856486
 1 -11.44812163656366 -1.53778709570957 -2.71498810621062
 1 -9.00823000630063 -4.97533408900890 -1.52147437543754
 1 -8.22607782238224 -5.91701171377138 -0.06514616651665
 1 -9.23764104410441 -5.00503246444644  0.24609921942194
 1 -3.30546012741274 -3.56190991589159 -0.65441374817482
 1  3.24496611201120 -3.34639191299130 -1.55703142024203
 1  2.63598788758876 -1.64939085408541 -2.71601183648365
 1  3.67177450515052 -1.27345009340934 -0.28682508090809
 1  4.53459651665167 -1.56215968846885 -4.15550566556656
 1  6.49654323272327 -1.39863853925393 -3.64734595849585
 1  5.28995282268227 -2.84930754505451 -3.68947313111311
 1  6.38411883378338  0.44155949334934 -2.42780539773977
 1  5.58808391779178  0.49063461126113 -0.64141840524052
 1  6.84652583148315 -1.26418461556156 -0.13727200560056
 1  7.66843224162416 -1.78199698999900 -1.47638711461146
 1  8.67121925332533  0.69067966276628 -1.35039782508251
 1  8.25201369946995  0.97529271747175  0.02040774917492
 1  9.71600404750475 -0.97838528222822 -1.18542570017002
 1  8.97031927622762 -2.11354016971697  0.47606596739674
 1  10.43620969036904 -1.71013489468947  0.92044393579358
 1  9.54884809640964 -0.91771299369937  1.40924222932293
 1  11.17098073587359  1.13186594649465 -0.78795596719672
 1  10.84493424002400  1.14447332293229  1.03512739303930
 1  12.58477601980198 -0.66670911041104  0.97335101840184
 1  12.38392054605461 -0.66064428502850 -0.63222622012201
 1  13.47423229322932  1.42975252025202 -0.43373227782778
 1  13.06902894769477  1.46588083938394  1.41402719211921
 1  14.52863428922892 -0.81511902790279 -0.25088327952795
 1  14.68166806670667  0.49892028752875  2.67303007600760
 1  14.31257853135313 -1.44836250815081  2.18481597969797
 1  15.95832286538654 -0.20234381748175  1.95729220692069
 1  15.72633376827683  2.06038603200320 -0.56639661436144
 1  15.64240827342734  2.26449598509851  0.96193451665166
 1  17.01920323542354  0.44794796539654  1.59102928962896
 1  17.21800932513251 -0.23370520132013 -0.40072144954495
 1  18.16058106520652  2.40276682448245 -1.24231722002200
 1  17.90200019611961  2.56834074097410  0.72611928242824
 1  19.61470403160316  0.45065791199120  1.26123947474747
 1  19.84078239623962  0.96617166676668 -2.25404752995299
 1  21.03142743274327 -0.31847364916492 -1.15324945834583
 1  19.49271199819982 -0.63250096849685 -1.25481355605560
 1  20.97301408000800  3.03321290039004  1.15508626222622
 1  21.78904664496450  1.93494007670767 -0.33441615661566
 1  20.29175582848285  2.85839332653265 -0.91174597089709
 1  0.40718509340934 -3.67135988538854  2.81660000800080
 1 -1.18155783678368 -5.11779905360536  2.82708334493449
 1 -1.20011402470247 -2.90861933903390  3.64238839203920
 8 -11.80093846814681  3.76453125232523 -0.53783559725973
 1 -13.00865137663766  2.08004924502450 -1.05865647064707

