%nproc=4
%Mem=4GB
# td=(NStates=1) iop(3/107=0140000000,3/108=0140000000) iop(3/107=0140000000,3/108=0140000000) CAM-B3LYP/6-31G(d,p) 

TD

0 1
12 -5.60156166276628  1.16105097939794  0.17968657385739
 6 -5.06970735793579 -2.22506096939694 -0.27857472427243
 6 -3.31897068616862  1.11913219801980  2.79943531683168
 6 -6.09025782148215  4.65283854805481  0.70329053785379
 6 -7.87199296639664  1.15471632233223 -2.41083875737574
 7 -4.41965621892189 -0.35573376517652  1.07997933673367
 6 -4.31054458195820 -1.66367006860686  0.74440679027903
 6 -3.26616974147415 -2.36908021082108  1.44642900660066
 6 -2.93245641664166 -1.37544043494349  2.64881143724372
 6 -3.56516394379438 -0.09789241694169  2.14119870507051
 6 -3.39322236163616 -1.85898934033403  3.99423212261226
 6 -1.99241443464346 -2.67397480678068  0.66757206270627
 6 -1.04966661016102 -3.56203378397840  1.38630221822182
 6  0.23787888838884 -3.88207204790479  0.51309950465047
 8  0.40364042834283 -3.51265857945795 -0.56603283748375
 8  1.12212905860586 -4.70962057935794  1.14296890419042
 7 -4.87379819611961  2.57128650555055  1.50771100280028
 6 -3.94051614141414  2.38512593429343  2.45039564286429
 6 -3.62950245394539  3.71499000120012  3.15272582878288
 6 -4.44428498119812  4.55022655095510  2.49024829612961
 6 -5.26386249044904  3.89225732093209  1.48642473477348
 6 -2.57133249634964  3.91602897869787  4.23049723912391
 6 -4.54181071167117  5.94768218871887  2.89932943774377
 8 -3.79338938693869  6.55785367336734  3.69467336723672
 7 -6.89662346224622  2.66967686348635 -0.72157381368137
 6 -6.93991670647065  3.94070368756876 -0.35662735143514
 6 -7.95801098749875  4.58543526832683 -1.19779388888889
 6 -8.31116056935694  3.64987191709171 -2.07621656605661
 6 -7.74023291379138  2.41884789358936 -1.79195514201420
 6 -8.27182017291729  6.06698660806081 -1.15105461426143
 6 -9.34599896319632  3.76695709390939 -3.16698133093309
 6 -8.71160261396140  4.21686983318332 -4.53798020202020
 7 -6.34390280928093 -0.23453847154715 -1.06326141814181
 6 -7.37700723032303 -0.03923999259926 -2.11055526622662
 6 -7.58076558375838 -1.35017672127213 -2.62782530513051
 6 -6.69306885568557 -2.13240281208121 -2.06994316001600
 6 -5.90491890729073 -1.42045561066107 -1.02103823422342
 6 -8.56246170397040 -1.66026615261526 -3.77519441564156
 6 -6.23734740184018 -3.56838242214221 -1.99325288038804
 8 -6.56303069856986 -4.54738243664366 -2.61977824292429
 6 -5.14090265236524 -3.56537459005901 -0.79739205900590
 6 -5.41034851225122 -4.65968140924092  0.25121879367937
 8 -5.90223599519952 -4.49636864496450  1.35457182058206
 8 -5.10704040224022 -5.88644984138414 -0.35880902550255
 6 -5.51760932513251 -6.99376122942294  0.50973280308031
 6  2.32837381058106 -4.90968208840884  0.49988394279428
 6  3.30651518651865 -3.96210637153715  0.84053195299530
 6  3.96535592579258 -3.16272914301430 -0.00665703070307
 6  3.76027036593659 -3.24678962026203 -1.61774127862786
 6  5.09304573037304 -2.15093014061406  0.56181998079808
 6  6.47475234653465 -2.63952687788779 -0.00123865646565
 6  7.53920924452445 -1.75020437593759  0.51619731023102
 6  9.05303612491249 -2.01690652425243 -0.03813159565957
 6  9.52878926062606 -3.42304294469447  0.12406894919492
 6  10.01893247234723 -0.91131136853685  0.56399891539154
 6  11.36854415681568 -0.81123072997300 -0.11054982118212
 6  12.20275796439644  0.24676930443044  0.41570841844184
 6  13.50408286408641  0.41989685958596 -0.39274403760376
 6  14.38941724072407 -0.71538094069407 -0.25114926582658
 6  14.19472541214121  1.81425759735974 -0.11109036383638
 6  15.49170336073607  2.17650567876788 -0.88318331333133
 6  15.94444702910291  3.59436418921892 -0.63768438163816
 6  17.22952820192019  3.95266310791079 -1.32948688388839
 6  17.10150273997399  3.99687457915792 -2.91489371357136
 6  17.79408881498150  5.27515278057806 -0.85246470537054
 1 -2.58737446024602  1.37318159355936  3.59922039043904
 1 -6.35875385418542  5.68857423782378  0.69151814351435
 1 -8.47710811801180  1.07274757765777 -3.22753823262326
 1 -3.85392645744574 -3.41496681208121  1.83484154495450
 1 -1.82670979487949 -1.12238990059006  2.66788806490649
 1 -2.84658443754375 -2.77764092529253  4.32116566056606
 1 -3.34214500720072 -0.93373327772777  4.56843887368737
 1 -4.33134564626463 -2.24059314021402  3.89605355585559
 1 -2.17838315201520 -3.15935545284528 -0.35505612941294
 1 -1.50106793919392 -1.70896001230123  0.42696081768177
 1 -0.70198563206321 -3.20750204580458  2.26357057575758
 1 -1.38606332793279 -4.50620775197520  1.73911570957096
 1 -1.59225933973397  3.69781930633063  3.76960286998700
 1 -2.56546753685369  4.92666987298730  4.42783904160416
 1 -2.68266126112611  3.15738673617362  5.09126413241324
 1 -5.40567363126313  6.61226542094210  2.48726404780478
 1 -9.88554768826883  2.97185784288429 -3.43231648334833
 1 -10.11571236913691  4.54269811391139 -2.85071536223622
 1 -9.47557735753576  4.20422883688369 -5.17886308860886
 1 -8.16298580798080  5.03737348274828 -4.55591554655466
 1 -8.01058090709071  3.35538489728973 -4.95105503030303
 1 -8.32530011961196 -1.15085562846285 -4.76824782308231
 1 -8.68593957695770 -2.76403980908091 -3.81318395539554
 1 -9.66654673417342 -1.48389521292129 -3.44787169386939
 1 -4.19639699709971 -4.07176200280028 -1.18884217111711
 1  2.85145627862786 -5.77132507550755  0.82802875977598
 1  2.08833957735774 -5.02110908700870 -0.53030648024803
 1  3.46094821712171 -3.99005828762876  1.82905791339134
 1  2.63460844754475 -3.65859148024803 -1.66699924092409
 1  3.82626724002400 -2.23917747704771 -2.04537700820082
 1  4.17943011701170 -4.10032376157616 -2.21820074597460
 1  4.93288332923292 -1.28538496249625  0.13510539403940
 1  5.21557008430843 -2.13888552095209  1.71444632493249
 1  6.70384791149115 -3.73159635173517  0.41625950995100
 1  6.47380754115412 -2.60682829182918 -1.10825142064206
 1  7.17862679397940 -0.63437676277628  0.20376762226223
 1  7.53000510341034 -1.82145872897290  1.69828421372137
 1  8.87777188648865 -1.61351962716272 -1.00148348644865
 1  8.94808932763276 -4.20776954835484 -0.10574436683668
 1  10.47484682548255 -3.64449865196520 -0.40878099159916
 1  9.81207026842684 -3.80734182568257  1.22367280998100
 1  9.51617076767677  0.06748247444745  0.41921728552855
 1  10.20103020052005 -1.24026055995600  1.64814435443544
 1  12.02275741704170 -1.77384741664166 -0.23335770897090
 1  11.01932801950195 -0.69507241214121 -1.27132846644665
 1  11.56982801630163  1.02307673687369  0.37723816861686
 1  12.45976079937994  0.20484167556756  1.48453673387339
 1  13.11563836453645  0.62959739203920 -1.53069530823082
 1  14.91032037033703 -0.76195440814081  0.80252593259326
 1  13.87608317931793 -1.67673668996900 -0.59475579707971
 1  15.25945693409341 -0.75832903110311 -0.89389628212821
 1  13.73546174037404  2.86096071517152 -0.20276206390639
 1  14.60596729702970  2.00177046624662  0.89614682858286
 1  16.30287194299430  1.56077469016902 -0.57377386808681
 1  15.22503808720872  2.03530744354435 -2.00369174887489
 1  15.09324072867287  4.21514689268927 -0.88034003210321
 1  16.24586735683569  3.71498814021402  0.52412231263126
 1  17.92408609000900  3.26659815101510 -1.17706678627863
 1  16.36134685508551  4.80743727262726 -3.31655401520152
 1  18.11727765126513  3.94383389668967 -3.41927653275328
 1  16.75445564576458  2.91204227422742 -3.20805884048405
 1  18.30774682188219  5.37930914841484  0.22452411661166
 1  18.71196871917192  5.51098525072507 -1.42904981938194
 1  17.06428797969797  6.08884838793879 -1.15489955125513
 1 -5.36717201860186 -7.95649508260826  0.06096255855586
 1 -6.55522995329533 -6.85643272987299  0.83494700220022
 1 -4.76738490709071 -7.13724530013001  1.39328378497850
 8 -7.73179077067707  6.87583408420842 -0.39140692469247
 1 -8.90721901900190  6.50074571947195 -1.91320700350035

