%nproc=4
%Mem=4GB
# td=(NStates=1) iop(3/107=0140000000,3/108=0140000000) iop(3/107=0140000000,3/108=0140000000) CAM-B3LYP/6-31G(d,p) 

TD

0 1
12 -5.62991449804980  1.19449432373237  0.23777238243824
 6 -5.03369375657566 -2.12420088338834 -0.31369823662366
 6 -3.42885167426743  1.15500578537854  2.80707608090809
 6 -6.29579837553755  4.47488075227523  0.66387659645965
 6 -7.99829559665967  1.26361721242124 -2.48641631513151
 7 -4.33347760106011 -0.29219741154115  1.09130046884689
 6 -4.30926445394539 -1.64072777437744  0.67689003860386
 6 -3.14652777727773 -2.37974127692769  1.46105046874687
 6 -2.86597976897690 -1.32564545544554  2.63386994309431
 6 -3.59768719611961 -0.12288491619162  2.12806739193919
 6 -3.47866090549055 -1.86765020642064  3.89400209960996
 6 -1.99603479667967 -2.61159856915692  0.70960626612661
 6 -1.01011265476548 -3.53911149174917  1.43390697869787
 6  0.24766986748675 -3.93237707840784  0.65302349704971
 8  0.49642970727073 -3.43989130273027 -0.47290352455246
 8  1.10520736643664 -4.67420703800380  1.34201880918092
 7 -4.85831664796480  2.58358773567357  1.44999523122312
 6 -3.96283837363736  2.38229565126513  2.37697830113011
 6 -3.70102960666067  3.64429293149315  3.22598315451545
 6 -4.53348390109011  4.64022555085509  2.61075034633463
 6 -5.28994509870987  3.95237333253325  1.46628272057206
 6 -2.76567193029303  3.70551792759276  4.31307549694970
 6 -4.69674620522052  6.00569799029903  3.00800030483048
 8 -4.30742079007901  6.49895778377838  4.03704760466047
 7 -6.83734753465346  2.65093498929893 -0.84137579387939
 6 -6.98145085988599  3.89786940414041 -0.45894758345835
 6 -7.94459964636464  4.58949567436744 -1.14702881238124
 6 -8.46812626592659  3.64870180008001 -2.09858880328033
 6 -7.77826671717172  2.40787679647965 -1.82377832433243
 6 -8.38936192709271  5.95096500590059 -1.11389089788979
 6 -9.54807917121712  3.84554495269527 -3.23801843464346
 6 -8.95487694139414  4.06429457565757 -4.61155755975598
 7 -6.41284970397040 -0.08796381408141 -1.04188928092809
 6 -7.46454598419842  0.01406533793379 -2.14202841354135
 6 -7.61658916611661 -1.32182388598860 -2.75532805540554
 6 -6.64230377917792 -2.15916548834883 -2.09441560726073
 6 -6.12696111151115 -1.39635320042004 -1.10717684808481
 6 -8.52256771457146 -1.65771589758976 -3.78361525772577
 6 -6.08916258335834 -3.49851543544354 -2.06528008310831
 8 -6.56869126462646 -4.45651334973497 -2.65775204030403
 6 -5.02282084418442 -3.48979703230323 -1.00650297009701
 6 -5.23171064846485 -4.52507794889489  0.06468013981398
 8 -5.85934170577058 -4.38307731583158  1.18032439583958
 8 -4.93136283448345 -5.77551874827483 -0.37172031663166
 6 -5.23667123132313 -6.83154500780078  0.52741457125713
 6  2.31208218141814 -5.03752487268727  0.71536549094909
 6  3.44668920392039 -4.01594175507551  0.97246514631463
 6  4.11687107730773 -3.21855472557256  0.19548318331833
 6  3.85292963186319 -3.07502244354435 -1.25979548404840
 6  5.23438986478648 -2.36659170677068  0.80627442624262
 6  6.57207207850785 -2.72378530373037  0.19608107550755
 6  7.59057438103810 -1.86711606710671  0.72563825432543
 6  9.01348216951695 -1.92216705030503  0.00095231273127
 6  9.68900528222822 -3.35311595199520  0.11760830313031
 6  10.05995657475748 -0.92805304270427  0.57006952245225
 6  11.38688599099910 -0.91742134903490 -0.24919368556856
 6  12.19445713431343  0.23991861936194  0.16776362396240
 6  13.51068352415241  0.38881375127513 -0.57669243244324
 6  14.45653395239524 -0.82018142074207 -0.41506565746575
 6  14.33695963556356  1.65824199579958 -0.18177743254325
 6  15.51301549194919  2.11909993819382 -1.08323331833183
 6  16.08977156155616  3.51784653745375 -0.72267288048805
 6  17.34705995509551  3.87479532113211 -1.43903783898390
 6  17.17502009170917  4.00694558625863 -2.93751597579758
 6  17.95109451555155  5.19839510481048 -0.86609606850685
 1 -2.78210393319332  1.14549882528253  3.73672414081408
 1 -6.58602658145815  5.63793917431743  0.80114910661066
 1 -8.74595500270027  1.22640294319432 -3.28745422422242
 1 -3.52573363816382 -3.41507682308231  1.85876393719372
 1 -1.84040116401640 -1.03474113571357  2.78328960506051
 1 -3.07015679477948 -2.76694985618562  4.07632117611761
 1 -3.36870766346635 -1.47290719511951  4.99261129092909
 1 -4.77797030873087 -1.83807288818882  3.84004795529553
 1 -2.01539685338534 -3.21707122442244 -0.43256388018802
 1 -1.56580441284128 -1.75567468376838  0.29291741334133
 1 -0.71001643514351 -3.06998829442944  2.30241446014601
 1 -1.53176789838984 -4.43032016321632  1.79777157515752
 1 -1.84840495429543  3.26218574297430  4.09655556525653
 1 -2.58328931903190  4.63073027902790  4.66026228392839
 1 -3.47001999699970  3.05067606510651  5.05891089708971
 1 -5.22189525342534  6.76541073547355  2.13782910431043
 1 -10.23186231973197  2.96106676377638 -3.14119737143714
 1 -10.11398219611961  4.70542438653865 -3.26178646934694
 1 -9.87239703950395  4.20780919491949 -5.44487969026903
 1 -8.19364887428743  4.85776552195219 -4.42058201320132
 1 -8.50406025502550  3.04015337413741 -4.84079400420042
 1 -8.55172276187619 -1.02641318421842 -4.73680467876788
 1 -8.48403938693869 -2.72555596069607 -4.11485412241224
 1 -9.61961204070407 -1.35310213361336 -3.59051595829583
 1 -4.12675003240324 -3.79827465406541 -1.77510079697970
 1  2.63716484948495 -6.08594653765377  1.32989894679468
 1  2.29654039743974 -5.21630860696070 -0.24818826842684
 1  3.96388851115112 -4.28189747154716  1.97197220482048
 1  2.83627861456146 -3.18822444354435 -1.45707824882488
 1  3.99669428272827 -1.96956051535153 -1.47769023952395
 1  4.52612478647865 -3.68262199139914 -1.75264419031903
 1  5.00322036293629 -1.23620004400440  0.46813869736974
 1  5.18309683698370 -2.33573520592059  2.07094197449745
 1  6.80825835253525 -3.61852504460446  0.30304818881888
 1  6.58281844224422 -2.36539414841484 -0.95076567206721
 1  7.28976790809081 -0.76580990609061  0.75482272777278
 1  7.79618172107211 -2.24838142124212  1.83206759205921
 1  8.86088019731973 -1.65787406260626 -1.09443278137814
 1  8.90269478817882 -4.12731150255025 -0.14504829722972
 1  10.47756709750975 -3.84298850095009 -0.59588970247025
 1  9.89219828122812 -3.49716080758076  1.16179662236224
 1  9.65107425802580  0.02443817001700  0.71963732753275
 1  10.39034913241324 -1.13487002090209  1.46645618561856
 1  11.79851499279928 -1.86076610851085 -0.23605797899790
 1  11.03164925162516 -0.90943384828483 -1.37800913451345
 1  11.60995202870287  1.19486391559156 -0.13111266646665
 1  12.43689851315131  0.40733192459246  1.29548782898290
 1  13.19549635033503  0.26742117441744 -1.59100133883388
 1  14.77781712001200 -0.85522373507351  0.49534521452145
 1  13.94174974597460 -1.64779379567957 -0.72046836833683
 1  15.30420140854086 -0.70781397959796 -0.93322021452145
 1  13.45682387658766  2.35377999709971  0.08272648494849
 1  14.89487618791879  1.34266455565557  0.84506172007201
 1  16.51163281908191  1.28720733343334 -1.04072056275628
 1  15.20428601200120  2.30681459425943 -2.16524790449045
 1  15.21359276387639  4.20569594759476 -1.02573457155716
 1  16.16601937203720  3.54088072947295  0.46002590299030
 1  18.07319100050005  3.02852434363436 -1.51065014461446
 1  16.54415513591359  4.88769529842984 -3.02530489028903
 1  18.02357828132813  4.33123263656366 -3.40370497559756
 1  16.82647284748475  2.98744981498150 -3.34139217381738
 1  17.98564461166117  5.04430564806481  0.15478714291429
 1  18.94992251455146  5.42546669886989 -1.16145305970597
 1  17.25509706060606  6.08103760686069 -1.23100716201620
 1 -5.00836613801380 -7.92125155825583  0.11109757205721
 1 -6.16782121242124 -6.85450253685369  0.74402791029103
 1 -4.70209837843784 -6.72350392599260  1.54607906450645
 8 -7.83377096869687  6.86064256505651 -0.38583636763676
 1 -9.01848014511451  6.16821246614661 -1.83072875567557

