%nproc=4
%Mem=2GB
# td=(NStates=1) iop(3/107=0140000000,3/108=0140000000) iop(3/107=0140000000,3/108=0140000000) CAM-B3LYP/6-31G(d,p) 

TD

0 1
12 -6.78526109820982  0.52665180928093  0.17752537203720
 6 -4.51837894439444 -2.12391081288129  0.48227850485049
 6 -4.13280509590959  2.78951058415842  0.99579246084608
 6 -8.84493719841984  3.16586061016102 -0.28409791149115
 6 -9.38290638823882 -1.70518354795480 -0.79648970767077
 7 -4.67965303720372  0.26773617131713  0.53387241934193
 6 -3.97284455005501 -0.96933664046405  0.61943249864987
 6 -2.37358077667767 -0.67129888908891  1.01220328262826
 6 -2.42111207700770  1.03799394819482  1.35893805630563
 6 -3.83391965486549  1.35558564376438  0.94749952465247
 6 -2.06474275997600  1.15806760266027  2.81757632043204
 6 -1.52414116251625 -1.08341090449045 -0.26691536523652
 6 -0.10366848514852 -0.93928563516352  0.38805787928793
 6  0.81647272647265 -1.30456769366937 -0.71522969676968
 8  0.91155122322232 -1.01829444194419 -1.92060305050505
 8  1.91422170877088 -2.13015331393139 -0.21013593609361
 7 -6.65036677887789  2.51425179517952  0.29993374127413
 6 -5.41992255315532  3.31471011421142  0.54689098529853
 6 -5.66801101630163  4.80167985278528  0.45887075567557
 6 -7.12441315471547  4.86469255975598  0.23381996529653
 6 -7.65089679357936  3.51794060246025  0.20526535793579
 6 -4.87850277057706  5.82772020252025  0.82924059205921
 6 -7.81711327262726  6.10093701380138  0.24079360306031
 8 -7.59881379757976  7.14639625622562  0.45119297609761
 7 -8.86560011351135  0.62567342654265 -0.31796444554455
 6 -9.44082775517552  1.88220295559556 -0.38532958525853
 6 -10.79120575087509  1.64913478457846 -0.81712749394939
 6 -10.94086844434443  0.23187409180918 -0.94281513701370
 6 -9.75605726902690 -0.40735889908991 -0.60676275297530
 6 -12.07126390169017  2.51539773287329 -0.86743139393939
 6 -12.10636375687569 -0.60809437173717 -1.31207934163416
 6 -12.19535639773977 -0.58833099829983 -2.81502429712971
 7 -6.92109859275928 -1.36616917821782 -0.02960560506051
 6 -7.92326498809881 -2.16875687238724 -0.64048724672467
 6 -7.35752333743374 -3.47605492789279 -0.75838684878488
 6 -6.14109973117312 -3.55191435233523 -0.37422568316832
 6 -5.94860114881488 -2.28177699219922  0.08148433273327
 6 -8.17423594709471 -4.57093447124713 -1.12248506440644
 6 -5.13835003950395 -4.42378817691769  0.02955098079808
 8 -4.88089983868387 -5.59043958225823 -0.05943543694369
 6 -3.90600432583258 -3.39315987518752  0.49129377657766
 6 -3.49369288018802 -3.75089126462646  1.83760347334733
 8 -3.90532577267727 -4.06007274207421  3.01595026482648
 8 -2.31396307120712 -3.47993429872987  1.83735367456746
 6 -1.69019754185419 -3.71817690779078  2.99705413061306
 6  3.07882977577758 -2.41690686758676 -1.04604584868487
 6  4.15124889228923 -1.46361336243624 -0.73597913021302
 6  5.10597135253525 -1.04590146154615 -1.64415061666167
 6  5.43705768956896 -1.55718885358536 -2.96583356555656
 6  6.16188001260126 -0.02435008790879 -1.06317287578758
 6  7.42864155815582 -0.68471425352535 -0.73896063336334
 6  8.53753631393139  0.20983661826183 -0.37681616211621
 6  9.78826191559156 -0.60058697899790  0.10920261456146
 6  9.41738925522552 -1.15662447714771  1.38857322612261
 6  10.98834116411641  0.51834668886889  0.20444528292829
 6  12.17450272077208 -0.05789448224822  0.29310762196220
 6  13.35926746934693  0.93886116081608  0.17979087748775
 6  14.84214054925493  0.29938321642164  0.38248291039104
 6  15.12585757385739 -0.12140442094209  1.97381730573057
 6  15.76159578797880  1.51232613461346  0.08190139543954
 6  17.08192767086708  0.97821304570457 -0.07079395329533
 6  18.29742929032903  1.98814600580058 -0.29664981178118
 6  19.49486168726873  1.21373986878688 -0.73596368006801
 6  19.33717351865187  0.60354578487849 -2.08623441464146
 6  21.04155132403240  1.92014343234323 -0.31170626652665
 1 -3.10642128042804  3.36870812181218  1.22892229392939
 1 -9.40220420292029  3.95438452355236 -0.59824345824582
 1 -9.93649614121412 -2.60972137143714 -1.36029885578558
 1 -2.13589610641064 -1.09005662346235  1.81651169946995
 1 -1.82043138173817  1.57801827802780  0.59791624502450
 1 -1.14202558625863  0.88580689508951  2.94194490559056
 1 -1.93950212411241  2.10684926132613  3.12865898369837
 1 -2.37164949744975  0.84969285458546  3.52206807590759
 1 -1.81282030233023 -2.22822409540954 -0.57387517431743
 1 -1.74230939993999 -0.28252972587259 -1.37630742154215
 1 -0.02056405810581  0.15390395709571  1.06470233543354
 1  0.14045032523252 -1.71740807460746  1.41122135423542
 1 -3.70749527992799  6.12583041094109  0.59518447614761
 1 -5.62795307590759  6.82347502340234  0.94974188028803
 1 -4.53433446164616  5.53262222322232  1.72020979327933
 1 -8.90210322442244  5.98585369456946  0.23318694289429
 1 -11.99984953855385 -1.64977584508451 -1.03009743694369
 1 -12.99442565756576 -0.08207180738074 -0.74287192359236
 1 -13.05144296739674 -0.89502161756176 -3.11150826792679
 1 -12.33676063986399  0.55986340784078 -3.30601277077708
 1 -11.56393321772177 -1.21734505150515 -3.51604821222122
 1 -8.97354653795380 -4.37657421302130 -1.68638086608661
 1 -7.54255947054705 -5.55820583318332 -1.45322497439744
 1 -8.83415069506951 -5.19379134033403 -0.30242563306331
 1 -3.31087066846685 -3.51785551045104 -0.26967527432743
 1  3.38339995539554 -3.49188646244625 -0.75205092219222
 1  2.70105439423942 -2.35356127112711 -2.11506174147415
 1  4.29161648934894 -0.94476722512251  0.27831143274327
 1  4.52415547254726 -1.13118659115912 -3.80066018101810
 1  6.48227180558056 -1.24273294869487 -3.43539476337634
 1  5.30708453585359 -2.79243185748575 -2.89220340414041
 1  6.25848627052705  0.81093643104310 -1.50936355355535
 1  5.78913402280228  0.58590413821382 -0.21465572897290
 1  7.36037721662166 -1.16125432253225  0.11483320492049
 1  7.43081848024802 -1.40388917921792 -1.10465994189419
 1  8.57332946434643  0.78217881268127 -1.37929071437144
 1  7.93147164526453  0.87056224442444  0.34321002940294
 1  9.93374582168217 -1.53259070277028 -0.48782594019402
 1  8.61686393069307 -2.04095291099110  1.55417377817782
 1  10.22838890829083 -1.97086096729673  1.75692758415842
 1  9.76557976957696 -0.35320654305431  2.24549585468547
 1  10.99834347214721  1.35977873777378 -0.66661383298330
 1  10.78394814141414  1.02057093269327  0.93563744404440
 1  12.33910145234523 -0.67399983948395  0.99691337463746
 1  12.18652080608061 -0.76321454205421 -0.37541053855386
 1  13.50044491449145  1.43511305630563 -0.87570647524752
 1  13.51186323112311  1.77542179347935  1.08457424682468
 1  15.32866429222922 -0.45132264826483 -0.34989318051805
 1  15.02643254315432  1.02570296579658  3.01274404740474
 1  14.47772504600460 -0.78611628352835  2.36464396249625
 1  16.22132916601660 -0.43458704180418  2.14519099679968
 1  15.45678681358136  2.01049104250425 -0.78219819451945
 1  15.95079911251125  2.28946848234824  0.75903422662266
 1  17.29816113121312  0.50942411301130  1.06261644834484
 1  17.24959248344834  0.23363153235324 -0.88705008240824
 1  18.07419242634264  2.67697424522452 -1.20391337963796
 1  18.19590958705871  2.99891379827983  0.66653332383238
 1  19.58392095329533  0.29852269846985 -0.07499414861486
 1  19.51267958595859  1.81612666226623 -2.58580070527053
 1  20.32897718771877 -0.07464926672667 -2.10297443084308
 1  18.47779050605061  0.18127040864086 -2.27137521222122
 1  21.53476025462546  2.22759233833383  0.33166391999200
 1  21.94887262756276  1.12286886958696 -0.50461317631763
 1  21.22761941484148  2.76599408660866 -1.01468626492649
 1 -0.67212283738374 -3.96837958735874  2.29808815681568
 1 -2.09758943994399 -4.59478675237524  3.78852948954896
 1 -1.77476148944894 -3.12439091619162  3.78020217341734
 8 -11.76628500280028  3.73310811001100 -0.62384419811981
 1 -13.03422393389339  2.12545378547855 -0.98015862086209

