%nproc=4
%Mem=4GB
# td=(NStates=1) iop(3/107=0140000000,3/108=0140000000) iop(3/107=0140000000,3/108=0140000000) CAM-B3LYP/6-31G(d,p) 

TD

0 1
12 -5.63800530713071  1.17707258155816  0.19961856705671
 6 -5.07624801200120 -2.10897936123612 -0.38313518031803
 6 -3.40149893899390  1.16399668446845  2.76745211851185
 6 -6.18421721742174  4.50632389658966  0.64586479527953
 6 -8.01726749384938  1.14274512521252 -2.44108178167817
 7 -4.36479073237324 -0.24888308010801  1.00898223702370
 6 -4.38103163066307 -1.54839854145415  0.68956130573057
 6 -3.27606073057306 -2.32654595739574  1.47995235893589
 6 -2.93627679867987 -1.38439133003300  2.59195575167517
 6 -3.55379280668067 -0.07426005370537  2.11784636983698
 6 -3.53809684908491 -1.81852529392939  3.88233093249325
 6 -2.02789798299830 -2.63693110241024  0.68357366286629
 6 -0.89092073557356 -3.37055463606361  1.44128771677168
 6  0.33906900740074 -3.84787862856286  0.56594478917892
 8  0.50312037633763 -3.29718703230323 -0.44701093529353
 8  1.07528437413741 -4.79120873817382  1.22811741904190
 7 -4.92812362866287  2.62763214011401  1.48684891659166
 6 -4.01379346914691  2.40354777647765  2.42701330463046
 6 -3.63195269896990  3.75333383558356  3.11698225442544
 6 -4.37550810351035  4.60391191949195  2.50249952125213
 6 -5.22867897209721  3.86457455265527  1.45399149144914
 6 -2.65702106520652  3.79492686848685  4.21452564196420
 6 -4.38980551115112  6.04115153565357  2.67193669846985
 8 -3.78032808080808  6.61198908690869  3.66103000290029
 7 -6.89644344424442  2.64465436123612 -0.64561621792179
 6 -6.95888860366037  3.97591720892089 -0.37038872757276
 6 -8.01417660406041  4.52564928972897 -1.17243135263526
 6 -8.58162761606161  3.49074600450045 -1.92626157055706
 6 -7.84082297279728  2.42137814661466 -1.69329527602760
 6 -8.33666665756576  5.95271518091809 -1.05318482728273
 6 -9.51837620092009  3.74590498869887 -3.10100473327333
 6 -8.73827528122812  4.12456060226023 -4.47073347734773
 7 -6.40455887488749 -0.05075009270927 -1.06062115411541
 6 -7.36220575017502 -0.02521859045905 -2.18047225792579
 6 -7.69516702390239 -1.39962166576658 -2.66159868246825
 6 -6.73886343514351 -2.19809938173817 -1.96559272497250
 6 -6.02147056245625 -1.41341490659066 -1.10162629302930
 6 -8.46648210601060 -1.55215534153415 -3.81825872207221
 6 -6.25283895099510 -3.47719330323032 -1.98675223032303
 8 -6.75423981948195 -4.51118881728173 -2.58638490359036
 6 -5.11186974907491 -3.52546059865987 -0.97466978677868
 6 -5.23707118451845 -4.59922536363636  0.14185785758576
 8 -5.57449322092209 -4.32411141924192  1.26409277267727
 8 -5.00815051325133 -5.75445664206421 -0.36481962656266
 6 -5.25549311351135 -6.89001085438544  0.55597742754275
 6  2.30778175137514 -5.18339946014602  0.44826878127813
 6  3.28077261226123 -4.20730089098910  0.97163506330633
 6  4.12007139733973 -3.45757862796280  0.14345798079808
 6  3.88448278717872 -3.24135907720772 -1.35652515701570
 6  5.20162658845885 -2.57928297589759  0.74282808160816
 6  6.54179905120512 -2.65673859905991  0.08954042144214
 6  7.58482380598060 -1.75705506100610  0.64079977047705
 6  9.00763158445845 -2.01022585618562 -0.06123390589059
 6  9.55049143084308 -3.42413305370537  0.23454999729973
 6  9.97885846494649 -0.94402463986399  0.54639715521552
 6  11.35157245964596 -0.93801340824082 -0.23864263046305
 6  12.25784347294729  0.21672630013001  0.04459130673067
 6  13.52656511231123  0.40725559545955 -0.64859962316232
 6  14.51047934693469 -0.79467887048705 -0.24027817871787
 6  14.21632757235724  1.69088526012601 -0.31048030283028
 6  15.35704989538954  2.22433046124612 -1.09637463246325
 6  15.99104168856886  3.56977172997300 -0.56127674087409
 6  17.37242249134913  4.00913875547555 -1.25939987518752
 6  17.10217280698070  4.11970686238624 -2.78810103430343
 6  17.71141054715471  5.40723598889889 -0.57554701360136
 1 -2.75810153295329  1.15141941734173  3.64403487188719
 1 -6.49352733153315  5.47216259665967  0.90476946864686
 1 -8.57735814301430  1.33099340224022 -3.34706018481848
 1 -3.85316638143814 -3.25867118251825  1.84008206900690
 1 -1.80117724162416 -1.19973763536354  2.83713498959896
 1 -3.05806558565857 -2.65675883708371  4.16409995399540
 1 -3.42179297199720 -0.94922482688269  4.65573760356036
 1 -4.58775128682868 -2.02998207910791  3.78827277777778
 1 -2.12050736443644 -3.28011752905291 -0.20984160796080
 1 -1.53287111951195 -1.87946706300630  0.21982010361036
 1 -0.44641007450745 -2.81252254785479  2.37617183588359
 1 -1.15627034863486 -4.25845297649765  1.77261905990599
 1 -1.71962207600760  3.60270979537954  3.52880879057906
 1 -2.71074206430643  4.76244345034503  4.72181843954395
 1 -2.56115911091109  2.80435143264326  4.91800680668067
 1 -4.65341840574057  6.68403259765977  1.75736105750575
 1 -10.39111824532453  2.94839549664967 -3.10563381508151
 1 -10.13225402330233  4.70038388248825 -2.82717300800080
 1 -9.46475627542754  4.05950436443644 -5.39264446674667
 1 -8.07391690109011  4.90706045144514 -4.43682363736374
 1 -7.75924577357736  3.20697005580558 -4.53458338313831
 1 -8.74042163176318 -0.69094963786379 -4.70835183348335
 1 -8.29742072507251 -2.59456286138614 -4.22784542154215
 1 -9.59244932443244 -1.89856668006801 -3.35302220892089
 1 -4.17807516491649 -3.61845667226723 -1.52132541944194
 1  2.50211134413441 -6.19760770377038  0.69179513641364
 1  2.15027577097710 -5.30118709480948 -0.51210466006601
 1  3.39994211651165 -3.97140642244224  1.96553156075608
 1  3.05420040674067 -3.80516613771377 -1.76056859785979
 1  3.85951056435644 -2.18935249454946 -1.68093056355636
 1  4.82240441444144 -3.44800853005301 -2.12687161306131
 1  4.80812085298530 -1.54488091209121  0.87203908740874
 1  5.28205673297330 -2.87682931533153  1.70447532783278
 1  6.74178170487049 -3.78582177427743  0.25496338033803
 1  6.40964112451245 -2.40700830983098 -0.97942853835383
 1  7.24979391069107 -0.82982630773077  0.47151439693969
 1  7.66868897179718 -1.74030061316132  1.55316970227023
 1  9.02278638793879 -1.84519279447945 -1.14959829792979
 1  8.69499401810181 -4.17046581798180 -0.13806759915992
 1  10.64075341614161 -3.57449165126513 -0.03848396189619
 1  9.61663072447245 -3.63403449494949  1.32773321602160
 1  9.51472062266227  0.05866159235924  0.47933329712971
 1  10.10872096959696 -1.10921745564556  1.68157769776978
 1  11.81124626592659 -1.93926395829583 -0.10532490569057
 1  11.17223331003100 -1.06243914881488 -1.19576090969097
 1  11.75091612511251  1.23936836603660  0.01186163096310
 1  12.26628145144514  0.21262245364536  1.14949322952295
 1  13.15038183888389  0.36893132543254 -1.81628386708671
 1  14.94565390369037 -0.73543175587559  0.87219289928993
 1  13.93823939493949 -1.81964098039804 -0.38385470697070
 1  15.32740372877288 -0.69490268846885 -0.95628252075208
 1  13.65750394459446  2.45639025812581 -0.32621440914091
 1  14.44456115641564  1.37728801800180  0.75379259315932
 1  16.10629228502850  1.53491210391039 -0.97867435813581
 1  15.08853443684369  2.24625853865387 -2.29266064576458
 1  15.29607101170117  4.30623600160016 -0.60849284738474
 1  16.18697146724673  3.58215485688569  0.44531443184318
 1  17.99456313771377  3.25867735893589 -0.95327440704070
 1  16.21772249264927  4.69991652055206 -3.01714407420742
 1  17.89217514101410  4.66818633193319 -3.45918052315231
 1  16.95482568276828  3.17366843684368 -3.27578561316132
 1  17.86996304350435  5.13470468796880  0.46350801500150
 1  18.56090361266127  5.84759891209121 -1.09604651905191
 1  16.84703625452545  6.05834533763376 -0.55997005830583
 1 -5.01112641404140 -7.78019745284528  0.03657011931193
 1 -6.38978340864086 -6.87143423002300  0.77258076557656
 1 -4.75830399899990 -6.83959553515352  1.51819627622762
 8 -7.76044363596360  6.75293179397940 -0.35261304530453
 1 -9.35954425152515  6.29273491839184 -1.48206388918892

