%nproc=4
%Mem=4GB
# td=(NStates=1) iop(3/107=0140000000,3/108=0140000000) iop(3/107=0140000000,3/108=0140000000) CAM-B3LYP/6-31G(d,p) 

TD

0 1
12 -5.54294580118012  1.22203707800780  0.16275488068807
 6 -5.08851923912391 -2.07731619491949 -0.31305817261726
 6 -3.20294908400840  1.07455774057406  2.77782315561556
 6 -6.14765356105611  4.52658592279228  0.67418762756276
 6 -7.96235200230023  1.17934878557856 -2.37751542504250
 7 -4.30013426672667 -0.25352354415442  1.05558689748975
 6 -4.26885041254125 -1.59316301790179  0.62765511511151
 6 -3.13083620812081 -2.28382168496850  1.34864922862286
 6 -2.84502767376738 -1.31883477437744  2.53297985408541
 6 -3.49938736613661 -0.01475410311031  2.11414599979998
 6 -3.35429846924692 -1.77216065746575  3.92060475987599
 6 -1.96177137033703 -2.78111552085209  0.46518182368237
 6 -0.97390903440344 -3.68251583218322  1.34113770177018
 6  0.31637673817382 -3.95384922562256  0.53281147584758
 8  0.49257932223222 -3.63370068366837 -0.59337557175718
 8  1.09971681738174 -4.76671628892889  1.28649325662566
 7 -4.98579939623962  2.51663104000400  1.55496572827283
 6 -3.93727581738174  2.30692811451145  2.52510311361136
 6 -3.67530703440344  3.63932243444344  3.13056361256126
 6 -4.53734428712871  4.61431295959596  2.52791206250625
 6 -5.30678678287829  3.91618971417142  1.56656274857486
 6 -2.59723508660866  3.73189056485649  4.20768495789579
 6 -4.58368489908991  6.00553797429743  2.80611011581158
 8 -3.99130917891789  6.56240412841284  3.68894279417942
 7 -6.80424422432243  2.72395229102910 -0.76416807310731
 6 -6.90091280608061  3.92584220142014 -0.38858054675468
 6 -7.87426261266127  4.60457718251825 -1.24287839733973
 6 -8.42811226452645  3.65439236913691 -2.02424136853685
 6 -7.74283317381738  2.35688169696970 -1.72105805230523
 6 -8.27363035393539  6.02714262366237 -1.01291079987999
 6 -9.54914927822782  3.87736813501350 -3.03006763956396
 6 -8.81100255395540  4.17451559775978 -4.36555295929593
 7 -6.36191461046105 -0.12219723742374 -1.15979107110711
 6 -7.32387191679168  0.00312424382438 -2.13629784048405
 6 -7.49830733793379 -1.26631833543354 -2.78648117071707
 6 -6.67852740154015 -2.16984655645565 -2.18105427112711
 6 -5.96085450085008 -1.34294785988599 -1.15104123452345
 6 -8.64419987778778 -1.58677880388039 -3.72734963116312
 6 -6.30578424552455 -3.50669625352535 -2.05062861796180
 8 -6.58595299079908 -4.48927662606261 -2.65202146724672
 6 -5.14420298239824 -3.48309636223622 -0.91377369716972
 6 -5.35855333273327 -4.65601104220422  0.09583325512551
 8 -5.68761453305331 -4.45418442654266  1.26789315271527
 8 -5.10457015521552 -5.84902609900990 -0.43829697429743
 6 -5.32269983418342 -6.91552340564056  0.43472530233023
 6  2.34165513871387 -5.04803592379238  0.57252120652065
 6  3.33112764776478 -4.10446060696070  1.06297419721972
 6  4.04212360256026 -3.32963583368337  0.24085772077208
 6  3.82709704860486 -3.14146908820882 -1.29237874237424
 6  5.08916534233423 -2.37866291389139  0.86159995879588
 6  6.50839571087109 -2.85738866406641  0.21526299369937
 6  7.56749207280728 -1.92903225872587  0.73359905040504
 6  8.95659648094809 -1.95038987258726  0.15393761126113
 6  9.61273765546555 -3.37031767216722  0.24900144244424
 6  9.95201578067807 -0.89259949734973  0.72702521802180
 6  11.26362366476648 -0.77442704960496  0.01211244504450
 6  12.21627931653165  0.34781940944094  0.36046289388939
 6  13.44575703150315  0.54231910181018 -0.50672543574357
 6  14.44714301330133 -0.68791819441944 -0.39711386228623
 6  14.12355829542954  1.89039521112111 -0.11119037383738
 6  15.35743993439344  2.12987101530153 -0.97260225522552
 6  15.93150573497350  3.55657040984098 -0.66549716291629
 6  17.20318556765677  3.88566640824082 -1.52475641084108
 6  17.02915550525053  3.88572346404640 -3.00731295549555
 6  17.78892829892989  5.24139940524052 -1.10371983088309
 1 -2.52565828862886  1.05623989938994  3.62836330473047
 1 -6.47956593539354  5.61239662006201  0.75849484118412
 1 -9.06340674787479  1.17208751165116 -3.12122760156016
 1 -3.40859192399240 -3.34181949734973  1.77182524332433
 1 -1.68324544844484 -1.12611027262726  2.62260353645365
 1 -2.87993777287729 -2.65727888908891  4.20501404540454
 1 -3.10154094679468 -0.98304820922092  4.62634466426643
 1 -4.32168468016802 -2.02892197309731  3.88882283278328
 1 -2.37981329502950 -3.26306582388239 -0.49287991179118
 1 -1.54651248364837 -1.93016213251325  0.04027214881488
 1 -0.86046147964796 -3.13237453305330  2.25807002570257
 1 -1.53996871847185 -4.59823695489549  1.67248904690469
 1 -1.66502661646165  3.55550507490749  3.76464237393739
 1 -2.47463845394539  4.82287949394939  4.53872012971297
 1 -2.84787778277828  3.23287428492849  5.07931293729373
 1 -5.28034109800980  6.52289648404841  2.09202452385239
 1 -10.14820395389539  3.13671432853285 -2.91197444914491
 1 -10.10810160806081  4.79857370147015 -2.79945023572357
 1 -9.59128892869287  4.37565597959796 -5.31784698699870
 1 -8.33830333973397  5.21559130453045 -4.27906786178618
 1 -8.03960380938094  3.49184854365437 -4.64975490029003
 1 -8.55448303790379 -1.04955549844985 -4.68701970027003
 1 -8.52574355735574 -2.72357576267627 -3.95752838983898
 1 -9.40804088358836 -1.44914173757376 -3.25042194889489
 1 -4.31475883328333 -4.04286911351135 -1.47170045694569
 1  2.49512064506451 -6.25345328832883  0.63369932683268
 1  2.14679542294229 -4.92853983008301 -0.56647009660966
 1  3.52018414071407 -4.30539982178218  2.11455646324632
 1  2.80000498719872 -3.67986360746075 -1.43542608360836
 1  3.80630524382438 -2.07406096539654 -1.66091856235624
 1  4.57265943994399 -3.63127685688569 -1.99498842474247
 1  5.05362540344034 -1.42448887288729  0.62670455395540
 1  5.30800932823282 -2.50799243164316  2.02839772007201
 1  6.80889841654165 -3.89087227932793  0.40867875187519
 1  6.57710787118712 -2.72289989898990 -0.75606620212021
 1  7.20892982428243 -1.01828515361536  0.78484573007301
 1  7.88057015991599 -2.04923150625062  1.75975036033603
 1  8.84560867016702 -1.62772104730473 -0.89597293539354
 1  8.85463998269827 -4.26071484288429  0.11972818041804
 1  10.40215955675568 -3.62963716581658 -0.36907702120212
 1  10.05193425482548 -3.40020111161116  1.49235967866787
 1  9.37847699829983  0.09000472667267  0.47168253205321
 1  10.05243534103410 -0.90937747164716  1.94175371537154
 1  11.79042418371837 -1.80084011591159  0.25060068686869
 1  10.95562164886489 -0.37247015191519 -1.06244757835784
 1  11.71375240874088  1.33860829002900  0.27162760756076
 1  12.63621844514451  0.28146933833383  1.47530581078108
 1  13.11619842054205  0.76225065736574 -1.62659489818982
 1  14.78174751305130 -0.70863907660766  0.55675135513551
 1  13.86357192819282 -1.54399341564156 -0.74249057055706
 1  15.06502749114911 -0.59752295049505 -1.02981987448745
 1  13.50177837203720  2.66127074617462 -0.19118090579058
 1  14.66509320962096  2.00718100730073  0.91633884778478
 1  16.06513816961696  1.11453006570657 -0.86560305100510
 1  15.20827641104110  2.14807872067207 -2.01885326502650
 1  15.05328673327333  4.15262064006401 -1.12570456855686
 1  16.10545331543155  3.81539818121812  0.22229212961296
 1  18.09095277667767  3.14374586578658 -1.27135621522152
 1  16.20786150655065  4.59758628752875 -3.12930529032903
 1  17.84363028652865  4.24625413871387 -3.62126673177318
 1  16.84865506570657  2.82958402840284 -3.29178721332133
 1  17.52595864306431  5.35023624112411  0.09671133533353
 1  18.84392191449145  5.47709186138614 -1.55384229862986
 1  17.19990154105410  6.08184768786879 -1.42024608590859
 1 -5.05672097349735 -7.71199063216322 -0.23684722242224
 1 -6.29846427672767 -6.71204829142914  0.83926743424342
 1 -4.53887205580558 -6.97478905450545  1.28043249984998
 8 -7.85284287588759  6.90836733753375 -0.33951173517352
 1 -9.06817511461146  6.36898254315432 -1.69940562336234

