%nproc=4
%Mem=2GB
# td=(NStates=1) iop(3/107=0140000000,3/108=0140000000) iop(3/107=0140000000,3/108=0140000000) CAM-B3LYP/6-31G(d,p) 

TD

0 1
12 -6.79979255135514  0.66234537863786  0.03273089258926
 6 -4.47681478797880 -2.06297471927193  0.41842211921192
 6 -4.27002881828183  3.01431306440644  0.69076195779578
 6 -9.05131783648365  3.17648167226723 -0.27468697039704
 6 -9.26235433303330 -1.65346837643764 -0.59748980768077
 7 -4.57430250215022  0.48123752145215  0.50084911701170
 6 -4.02578984458446 -0.68908861566157  0.68402895829583
 6 -2.57632105070507 -0.44854661386139  1.10941300360036
 6 -2.48894886068607  1.15017516631663  1.24772693519352
 6 -3.86926318921892  1.54611469666967  0.75619039373937
 6 -2.16998328402840  1.45630742664266  2.70612517531753
 6 -1.65301404980498 -0.98979154255426 -0.19650832453245
 6 -0.11491961026103 -0.88506021262126  0.32004107760776
 6  0.79698077727773 -1.22687992489249 -0.75501367516752
 8  0.65054512261226 -1.15266787928793 -2.02456344654465
 8  1.64548483508351 -2.15576587518752 -0.29527444994499
 7 -6.74548629082908  2.58412878287829  0.26295004290429
 6 -5.62013257415742  3.33373201640164  0.61602789898990
 6 -5.83546776197620  4.87724740954095  0.73875874447445
 6 -7.15957667106711  4.98245433593359  0.21129771307131
 6 -7.81468317221722  3.56964577297730 -0.00963613221322
 6 -4.91883680398040  5.85340277077708  0.89808747674767
 6 -8.02857441874187  6.15688260836084  0.26664618831883
 8 -7.64369828602860  7.33297491409141  0.63242109890989
 7 -8.74008756225623  0.82894375357536 -0.28743139223922
 6 -9.41300497289729  1.89404413971397 -0.47895894819482
 6 -10.93966059635964  1.56999687078708 -0.66274205540554
 6 -11.04462882038204  0.13118402280228 -0.74447530303030
 6 -9.54640630393039 -0.24228239143914 -0.61112318901890
 6 -11.89374614991499  2.53768996209621 -1.11635628642864
 6 -12.20863398389839 -0.66579014131413 -1.05092322602260
 6 -12.32941980408041 -1.08904106930693 -2.46267906260626
 7 -6.94631111401140 -1.41421398269827 -0.19179182368237
 6 -8.04787744934493 -2.23396339303930 -0.52515571357136
 6 -7.46482406750675 -3.76901422382238 -0.44629563966397
 6 -6.08743436463646 -3.57417657855786 -0.00806906750675
 6 -5.76390267896790 -2.17082589708971  0.05660184448445
 6 -8.47162568606861 -4.88798617641764 -0.66092890879088
 6 -4.94961116561656 -4.36435223332333  0.09150717641764
 8 -4.88837058575858 -5.62041257955796 -0.03188268166817
 6 -3.88475220062006 -3.36538709790979  0.43365801300130
 6 -3.15928943984398 -3.80751692719272  1.77737745074507
 8 -3.64754999509951 -4.26739347414741  2.84135280508051
 8 -1.78796047094710 -3.52619892519252  1.66075601480148
 6 -1.13864238633863 -3.86012110221022  2.91311573677368
 6  2.82668456125613 -2.29320449734973 -1.32017326142614
 6  3.93267703510351 -1.30056705780578 -0.84946047834783
 6  5.01692244764476 -0.95664253565357 -1.68021422302230
 6  5.17989197299730 -1.68784191889189 -3.09163614581458
 6  6.10903472807281 -0.06447410031003 -1.24253081158116
 6  7.38637733173317 -0.97899368146815 -0.88810554785479
 6  8.60459301960196 -0.02432679807981 -0.59641812231223
 6  9.85118820822082 -0.58677559785979 -0.15537384308431
 6  9.83605112141214 -1.37829664436444  1.13926829562956
 6  10.94799712971297  0.51930678487849 -0.12924808640864
 6  12.27189245974597 -0.25796448924892  0.08437674887489
 6  13.48923046564656  0.82233950865086  0.52597549594959
 6  14.98073440864087  0.26275955405541  0.54788945104510
 6  15.03449843794379 -0.38737101760176  1.83342326632663
 6  15.96879650805081  1.36337123912391  0.41359456475648
 6  17.30942042014201  0.75683090749075  0.15905903200320
 6  18.28396794419442  1.85150234143414 -0.19665981278128
 6  19.74624682578258  1.40553904870487 -0.38495857955796
 6  19.82793259455946  0.43755918621862 -1.77282307350735
 6  20.69435660456046  2.48340975897590 -0.33738883478348
 1 -3.62533317161716  3.83334458545855  1.22398179987999
 1 -10.05343932643264  4.17783686878688 -0.23802743664366
 1 -10.19436192779278 -2.67460786008601 -0.60198302420242
 1 -2.18889140594059 -1.05034265206521  2.32235228352835
 1 -2.03713305190519  1.75675615181518  0.35823227662766
 1 -1.32984436813681  0.95830414481448  3.11627233833383
 1 -2.41634980888089  2.51731030743074  2.90472659045905
 1 -3.04572690519052  0.87224510981098  3.10875674477448
 1 -2.09290831113111 -2.17976924992499 -0.32524031083108
 1 -1.90461563056306 -0.13056452935294 -0.94970476127613
 1  0.30269826812681  0.23188175487549  0.78926479167917
 1 -0.01188490829083 -1.47713404720472  1.20272050415042
 1 -4.08432296269627  5.83057088498850  0.14807976567657
 1 -5.41814209480948  6.70967364326433  0.67693459955996
 1 -4.66250727892789  5.84476343734373  1.97424519681968
 1 -9.06002901700170  6.19295440464046  0.12062568676868
 1 -12.46151570517052 -1.74924579207921 -0.46216064326433
 1 -13.21789800480048 -0.22016561676168 -0.69693733013301
 1 -13.18268609170917 -1.53484559996000 -2.85013213031303
 1 -12.33009997379738 -0.35764834333433 -3.16451862136214
 1 -11.49370619501950 -1.44904822182218 -2.88130473787379
 1 -9.38819800310031 -4.75358191379138 -1.31659388738874
 1 -7.69838505310531 -5.94295430803080 -1.10619027092709
 1 -9.01320860086009 -4.98098005920592  0.75374998449845
 1 -3.34001358275828 -3.62534625952595 -0.39375768256826
 1  3.07528914431443 -3.33796106990699 -1.09657537463746
 1  2.36096038483848 -2.01445736073607 -2.16830706600660
 1  3.48807613531353 -0.37129987838784  0.34095769736974
 1  4.20641369836984 -1.36638011051105 -3.56037615261526
 1  6.10298387678768 -1.34915359075908 -3.18725994989499
 1  4.65890971837184 -2.73450606490649 -3.07432161596160
 1  6.47349777167717  0.88354369176918 -1.94427704490449
 1  5.66902201160116  0.29148469626963 -0.13364762816282
 1  7.10799197809781 -1.39730792789279  0.25946766836684
 1  7.78573397179718 -1.66375516581658 -1.76445592149215
 1  8.61053318471847  0.61114170897090 -1.41685447074707
 1  8.18862736083608  0.76885207340734  0.14124983338334
 1  9.92656510361036 -1.29167661136114 -1.02724988258826
 1  9.18859110341034 -2.18041685738574  1.16527488828883
 1  10.87943401280128 -1.35310919211921  1.11664355575557
 1  9.63873708530853 -0.66124734713471  1.99776108120812
 1  11.15162880068007  1.19588234813481 -1.16349352095210
 1  10.93279302590259  1.31564043964396  0.79452333263326
 1  12.08061560376037 -1.09953239273927  1.07801148444844
 1  12.41957411141114 -0.74037225782578 -0.72276527402740
 1  13.28697356735674  1.45159470447045 -0.48101700630063
 1  13.15966801160116  1.45268952025203  1.50014580398040
 1  14.91546297209721 -0.45009252525253 -0.18038622982298
 1  14.60637053695370  0.24314470997100  2.62201497449745
 1  14.47767504100410 -1.33457112901290  1.67922542064206
 1  16.03634066716672 -1.09484306740674  2.06915339303930
 1  15.56072720762076  2.09492948634863 -0.36661663636364
 1  16.20548458105810  2.09747928342834  1.29973829702970
 1  17.91454276937694  0.43110628122812  1.16728691539154
 1  17.10624814901490 -0.39761159195920 -0.41916329372937
 1  17.73310831793179  2.24709125692569 -1.22795578387839
 1  18.55208520462046  2.72850675757576  0.28983565406541
 1  19.93711627282729  0.57903074927493  0.36815016581658
 1  20.16125444344434  1.58520356995700 -2.54662678787879
 1  20.94337862786278 -0.29086088788879 -1.42746688008801
 1  18.66404913191319 -0.15522324072407 -1.71506958165817
 1  20.83745052365236  2.61930150925093  0.70229098269827
 1  21.73177091739174  2.19583616631663 -0.81111382638264
 1  20.28015466836684  3.46020350755076 -0.93773857015702
 1 -0.31197682278228 -4.04859760916092  2.27747609560956
 1 -1.62690237123712 -4.67548482218222  3.02921355795580
 1 -1.25876989028903 -3.11872034913491  3.75603975717572
 8 -11.63899227352735  3.73033783298330 -0.84298611231123
 1 -13.05873638513851  2.09018025812581 -1.34896550155016

