%nproc=4
%Mem=4GB
# td=(NStates=1) iop(3/107=0140000000,3/108=0140000000) iop(3/107=0140000000,3/108=0140000000) CAM-B3LYP/6-31G(d,p) 

TD

0 1
12 -5.69448095469547  1.16342121642164  0.24424302950295
 6 -4.97207759495950 -2.08501696499650 -0.42886975377538
 6 -3.49171796089609  1.21107139193919  2.74423979727973
 6 -6.29933872957296  4.46782004620462  0.69849005780578
 6 -8.08482424952495  1.22983383408341 -2.24232190569057
 7 -4.38238249154915 -0.24172236403640  1.09429076787679
 6 -4.23741726922692 -1.51677537913791  0.61918426802680
 6 -3.21492461696170 -2.26380968376838  1.41533589728973
 6 -2.89068223922392 -1.30635352625263  2.59531608770877
 6 -3.67300472787279  0.04434180648065  2.13304788998900
 6 -3.42341538093809 -1.75180862226223  4.00286298569857
 6 -2.02711790499050 -2.61641905120512  0.63529883538354
 6 -0.97430907440744 -3.62175975657566  1.35912950095010
 6  0.28095319581958 -3.89978381908191  0.73340153485349
 8  0.48011807610761 -3.50278759235924 -0.47516375057506
 8  1.11031787748775 -4.63374299159916  1.40580518781878
 7 -5.00486130243024  2.59847922482248  1.51187141884188
 6 -4.08824091389139  2.39773719541954  2.56491709500950
 6 -3.83329283298330  3.68831733393339  3.25904646084608
 6 -4.62548310101010  4.59438096639664  2.64016328762876
 6 -5.39396550075007  3.91495959115912  1.62644873717372
 6 -2.83890925402540  3.72572994879488  4.37771196059606
 6 -4.80993752435243  6.01770919141914  3.09657916271627
 8 -4.02282233023302  6.59675756375638  3.86672057195720
 7 -6.90858465836584  2.64506440224022 -0.69882153845385
 6 -7.07473018781878  3.94473409060906 -0.32449413811381
 6 -7.99651483788379  4.59225595039504 -1.23083719321932
 6 -8.53656310961096  3.58587551745175 -2.00381932633263
 6 -7.85180407090709  2.42599860866087 -1.68996494299430
 6 -8.33859685058506  5.97205711511151 -1.21676118491849
 6 -9.45214957825783  3.84079447764776 -3.23577821062106
 6 -8.64927638133813  4.14383252945295 -4.54020042404240
 7 -6.37864628362836 -0.16344136183618 -1.19001409340934
 6 -7.44933446304630 -0.00161623022302 -2.12470668136814
 6 -7.63541104830483 -1.41469317291729 -2.75534805740574
 6 -6.66795634443444 -2.19400897269727 -2.13308947464746
 6 -6.03203161856186 -1.39117268236824 -1.14722085248525
 6 -8.51631708950895 -1.68532865886589 -3.94575147134713
 6 -6.08315198229823 -3.53887947184718 -2.08196175127513
 8 -6.43858825432543 -4.58671637003700 -2.74087035213521
 6 -5.06466502860286 -3.50786883948395 -0.97845016481648
 6 -5.35556303370337 -4.59146458755876  0.10593426522652
 8 -5.89543531513151 -4.44373338143814  1.15985234863486
 8 -4.94173387158716 -5.82130332673267 -0.38910205480548
 6 -5.38042560676068 -6.95766762006201  0.39835166496650
 6  2.43183415661566 -4.91914303450345  0.87529148354836
 6  3.45930046504651 -3.91073123402340  1.19659755955596
 6  4.05509489968997 -3.14907777787779  0.27657129212921
 6  3.71377571647165 -3.18398333963396 -1.26823632813281
 6  5.29176560236024 -2.27843289088909  0.70031383018302
 6  6.55449032033203 -2.61147407260726  0.07131859925993
 6  7.67651297489749 -1.69672902840284  0.60968665916592
 6  8.99824064536454 -1.96325115871587 -0.05015279777978
 6  9.52069845154515 -3.39859049944994  0.36826336863686
 6  10.03229380848085 -0.97274751215122  0.46929944544454
 6  11.42586988938894 -0.82186179307931 -0.25894466066607
 6  12.32406009460946  0.31888651615162  0.06929377697770
 6  13.59451190699070  0.39632450235023 -0.83690845404540
 6  14.40428872787279 -0.90242964556456 -0.57994214511451
 6  14.28689462906291  1.68452462406241 -0.38642789758976
 6  15.48318250865086  2.05134316251625 -1.15205020002000
 6  16.08575115951595  3.40305505830583 -0.69207982118212
 6  17.46531178027803  3.82612045364536 -1.33943787898790
 6  17.36645923562356  4.02596748844884 -2.78903112731273
 6  18.02849225532553  5.11952721802180 -0.73620307920792
 1 -2.84773049584959  1.17980225562556  3.54504497289729
 1 -6.32815079387939  5.56123150355036  0.92996198789879
 1 -8.81768217541754  1.13839414231423 -3.07984346314631
 1 -3.81785285008501 -3.20659597499750  1.83759181998200
 1 -1.77232435633563 -1.04262192379238  2.59600087618762
 1 -2.67999777887789 -2.61297445864586  4.39220276427643
 1 -3.48492928562856 -0.91745164956496  4.62308433823382
 1 -4.54006651835183 -2.10423950485048  4.08873282378238
 1 -2.32504781848185 -3.04453397069707 -0.27029765356536
 1 -1.41220905330533 -1.71840095639564  0.16172429402940
 1 -0.41863729722972 -3.29420071567157  2.19650386908691
 1 -1.56058077967797 -4.50179731093109  1.69552135013501
 1 -1.85849596339634  3.21803132753275  4.13592950265026
 1 -2.83513450355035  4.80472767876788  4.75587184488449
 1 -3.35299829482948  3.04812581008101  5.04703970997100
 1 -5.53972703660366  6.57417161156116  2.47737305870587
 1 -10.06082521602160  2.84479513661366 -3.51506475817582
 1 -10.36955775367537  4.65060890499050 -3.10296058675868
 1 -9.25470527032703  4.03901231523152 -5.61474667696770
 1 -8.29375888528853  5.23906365176518 -4.54988494349435
 1 -7.70574042304230  3.39732909170917 -4.47263718851885
 1 -8.08929651925193 -0.78552909580958 -4.71579257755775
 1 -8.49966094909491 -2.70992439753975 -4.22798543554355
 1 -9.59962004150415 -1.50856768016802 -3.87105401210121
 1 -4.06278363576358 -3.90577540414041 -1.36276956385639
 1  2.76016714971497 -5.99827777077708  1.24703065996600
 1  2.35304604800480 -4.86678365446545 -0.23442689228923
 1  3.56968909120912 -4.02237151895190  2.30614562216222
 1  2.80267525422542 -3.73507912901290 -1.74592713371337
 1  3.51739635293529 -2.24322788208821 -1.54242671317132
 1  4.48878105210521 -3.72911664086409 -1.69551847774777
 1  5.10487052795279 -1.20788721272127  0.72449433293329
 1  5.22887141444144 -2.54088572097210  1.73137801810181
 1  6.72844037073707 -3.74608780088009  0.16845472947295
 1  6.62702286268627 -2.44674228322832 -0.82732332783278
 1  7.52926185748575 -0.54497782288229  0.31017826332633
 1  7.63523562646265 -1.79537612071207  1.87267165246525
 1  8.87394150345034 -1.67323559875988 -1.19689302740274
 1  8.76080059875988 -4.25990476187619  0.11569777737774
 1  10.51174051485149 -3.81404560666067 -0.38381849534954
 1  9.78177723912391 -3.52582367386739  1.53135357805781
 1  9.60623977457746  0.08674440064006  0.42818818261826
 1  10.09562966046605 -1.05996253015301  1.44919445944594
 1  11.90603574487449 -1.67931796369637 -0.15238961216122
 1  11.28523461016102 -0.71245415031503 -1.43449478307831
 1  11.80705173867387  1.18700312951295  0.00252069686969
 1  12.58351317461746  0.12371356275628  1.09949823002300
 1  13.29362616331633  0.48461289358936 -1.83285552425243
 1  14.73292263056305 -0.87305551825183  0.52463814381438
 1  13.86461203220322 -1.76322533883388 -0.84036035753575
 1  15.33605459385939 -0.85831903010301 -1.13335022752275
 1  13.56008420262026  2.59328394749475 -0.29473126082608
 1  14.74609130943094  1.60729101830183  0.59804701860186
 1  16.17753940974097  1.31207982068207 -0.91089758045805
 1  15.33712929632963  2.46460037283728 -2.01679305900590
 1  15.59385078967897  4.31929730773077 -0.81737373547355
 1  16.20108287838784  3.45265190659066  0.52555245564556
 1  18.26283996539654  2.99575106630663 -1.13026210581058
 1  16.75540626102610  4.85219174807481 -3.20485284508451
 1  18.52731865536554  4.38872838613861 -3.25469007410741
 1  17.18321852205221  3.13221429142914 -3.33608164276428
 1  18.28741478867887  4.98302952045205  0.29687135133513
 1  18.98483600590059  5.60067421962196 -1.18963587798780
 1  17.38858040894089  5.95738524162416 -0.88714277557756
 1 -5.10558585998600 -7.88131756485649 -0.32365590329033
 1 -6.38098252855286 -7.12590967756776  0.60686419391939
 1 -4.66947511611161 -7.01191276687669  1.35200965756576
 8 -7.72527011861186  6.65642214301430 -0.46031381538154
 1 -9.22091038813881  6.43826947184718 -1.98094377717772

