%nproc=4
%Mem=4GB
# td=(NStates=1) iop(3/107=0140000000,3/108=0140000000) iop(3/107=0140000000,3/108=0140000000) CAM-B3LYP/6-31G(d,p) 

TD

0 1
12 -5.65150665726573  1.29337421172117  0.23654225942594
 6 -4.96533692089209 -2.06972543584358 -0.38008487528753
 6 -3.41525031413141  1.12142242704270  2.83988936223622
 6 -6.29313810951095  4.54173743794379  0.72132234103410
 6 -8.00519628672867  1.17445829652965 -2.47963563706371
 7 -4.42013626692669 -0.32593078487849  1.09282062086209
 6 -4.32825635313531 -1.62923662526253  0.74085643524352
 6 -3.28335145964596 -2.32084538733873  1.50981534523452
 6 -2.87784095509551 -1.29394228512851  2.58290484658466
 6 -3.48983641104110 -0.08463109080908  2.15441002620262
 6 -3.28165120452045 -1.70027346874687  4.00304300370037
 6 -2.02248744194419 -2.71769917921792  0.57057236273627
 6 -1.06978862236224 -3.67168474907491  1.33159674767477
 6  0.19078417891789 -3.96236007670767  0.55436363106311
 8  0.36252631693169 -3.51664897849785 -0.51500773497350
 8  1.03711055675568 -4.74955457275728  1.21594620192019
 7 -5.05011582788279  2.53709308620862  1.59432966466647
 6 -4.09998208800880  2.28780620232023  2.43271387468747
 6 -3.86633613731373  3.58181668386839  3.18402895909591
 6 -4.61017156985699  4.51380290859086  2.66140541184118
 6 -5.38942504670467  3.90229832503250  1.52896898919892
 6 -2.84993035613561  3.60237761356136  4.37537172657266
 6 -4.69071560216022  6.03103052355235  2.92060156495650
 8 -3.96164621262126  6.53963185118512  3.77739163906391
 7 -6.88531233113311  2.61513140894089 -0.71258291459146
 6 -6.93768648344834  3.91177079427943 -0.42805449414941
 6 -7.96032121852185  4.58877560236024 -1.25141925142514
 6 -8.49556901020102  3.59983691359136 -2.06012495689569
 6 -7.79479837033703  2.41117712651265 -1.73057900440044
 6 -8.38316130703070  6.01257116651665 -1.14070357915792
 6 -9.35792015531553  3.69297969616962 -3.25636026882688
 6 -8.62900435413541  4.01113926012601 -4.60343674767477
 7 -6.32438085708571 -0.07486250395039 -1.11450654265427
 6 -7.28638816841684  0.02218615001500 -2.14239845054505
 6 -7.49609711691169 -1.28837054065407 -2.73852637523752
 6 -6.69625917471747 -2.11617118891889 -2.08767493319332
 6 -6.04051246664666 -1.40441400650065 -1.09505563596360
 6 -8.60004546234623 -1.69965009100910 -3.73615051125112
 6 -6.14415808290829 -3.55151073497350 -1.97802135723572
 8 -6.56238063356336 -4.46217391579158 -2.60695696079608
 6 -5.11132969506951 -3.46941499409941 -0.85304762456246
 6 -5.39913739113911 -4.58794423552355  0.06890056185619
 8 -5.94334010561056 -4.45060406850685  1.14645100850085
 8 -5.09140883908391 -5.88855005140514 -0.32931607620762
 6 -5.42810037423742 -6.97252910621062  0.52078390819082
 6  2.31429240244024 -4.96822794299430  0.57544149854985
 6  3.28457299229923 -3.90600076097610  0.99021692149215
 6  4.05596498669867 -3.11606447654765  0.21539517451745
 6  3.75401974087409 -3.08924386568657 -1.18915842034203
 6  5.21977840364036 -2.22964801240124  0.68909270807081
 6  6.55486035733573 -2.57296022122212  0.04163563096310
 6  7.75901122472247 -1.66532588808881  0.59469516001600
 6  9.06050687198720 -1.89590442404240 -0.05818360086009
 6  9.69469585128513 -3.23596423682368  0.23712025432543
 6  10.04516509560956 -0.88137837523752  0.43081559705971
 6  11.37392469486949 -0.78081768866887 -0.27332609880988
 6  12.26013370197020  0.35119974747475  0.10300714831483
 6  13.58818127392739  0.51163603350335 -0.58477324052405
 6  14.45997429642964 -0.71320072267227 -0.36638078897890
 6  14.19924586418642  1.83814998659866 -0.21712096689669
 6  15.60122431283128  2.04315234343434 -0.95357035203520
 6  16.10470305470547  3.43639839263926 -0.73540415361536
 6  17.54742999209921  3.73868170977098 -1.38982291749175
 6  17.40947353705370  3.89277416911691 -2.93012523672367
 6  18.12926233233323  5.06802206750675 -0.80066952585259
 1 -2.73012873567357  1.19180345574558  3.64992546094610
 1 -6.34793277207721  5.66947232763276  0.83455244694469
 1 -8.52796320352035  1.21762206510651 -3.38457393619362
 1 -3.84408547334733 -3.18998431383138  1.87957601840184
 1 -1.75840296419642 -1.26793445504550  2.76810808690869
 1 -2.70189996909691 -2.61820498169817  4.22894643864386
 1 -3.03285407810781 -0.96107601200120  4.77010904070407
 1 -4.44720723242324 -1.95168424932493  4.24081803230323
 1 -2.28307362106211 -3.20090960826083 -0.25537616141614
 1 -1.28110594299430 -1.82423153945395  0.27749587118712
 1 -0.85753118661866 -2.95457675327533  2.32654687338734
 1 -1.49547426902690 -4.71256838803880  1.46741853985399
 1 -1.96445655945595  2.91573109750975  4.19171508120812
 1 -2.51827281738174  4.58227543354335  4.65704196189619
 1 -3.36929992499250  3.12961395889589  5.28069307530753
 1 -5.47005006890689  6.56619081348135  2.28176349774978
 1 -9.89395852935293  2.74227488458846 -3.37556080778078
 1 -10.23223402130213  4.29691353545355 -2.92072236293629
 1 -9.37788758855886  4.14745315931593 -5.41325652795279
 1 -8.13213272267227  4.86788653405341 -4.63723367836784
 1 -7.99712956195619  3.03802316111611 -4.76674659945995
 1 -8.67815540514051 -1.06364690759076 -4.63511450975097
 1 -8.72986396939694 -2.76034944004400 -4.13603624062406
 1 -9.65210529002900 -1.51976880028003 -3.19326623332333
 1 -4.28520587798780 -3.81384621122112 -1.41754504140414
 1  2.69937107010701 -5.82038998199820  0.95819177607761
 1  2.22790353375338 -4.95276225232523 -0.48088153775378
 1  3.53751587388739 -3.77861714351435  2.06351135873587
 1  2.70820580728073 -3.15899152025203 -1.48675121612161
 1  3.80700531383138 -2.06509006830683 -1.70794326482648
 1  4.18075024902490 -3.78807253645365 -2.00321924782478
 1  4.72817285818582 -1.14607103110311  0.44907679117912
 1  5.22616114341434 -2.25786741914191  1.67034191449145
 1  6.85196272297230 -3.57767095919592  0.16358424242424
 1  6.41943210361036 -2.23472108110811 -1.00181077657766
 1  7.36794572587259 -0.62483580868087  0.29994724022402
 1  7.88100020292029 -1.87072365546555  1.68156254155416
 1  8.94299840914091 -1.79677795299530 -1.11006434453445
 1  9.03871839053905 -4.09617838923892 -0.04015780818082
 1  10.51885122592259 -3.21506570867087 -0.28892900640064
 1  9.85007406880688 -3.12279337083708  1.36818726142614
 1  9.62378152875288  0.07275300150015  0.30642600640064
 1  10.29014911241124 -0.97917445134513  1.45730527052705
 1  11.80715585688569 -1.81123115501550 -0.20877525072507
 1  11.15108119481948 -0.71038394329433 -1.18502983658366
 1  11.90094112761276  1.38492292149215  0.41429187398740
 1  12.62017684098410  0.16970816221622  1.16614489468947
 1  13.42709951065106  0.57812224452445 -1.64236647534754
 1  14.54946428472847 -1.07962617531753  0.84191987198720
 1  14.05498106910691 -1.62536155245524 -0.75497181868187
 1  15.45455644404440 -0.62218541674167 -0.71039793229323
 1  13.51697989218922  2.64971959105911 -0.40695248294829
 1  14.50923762406241  1.97733802300230  0.91616883078308
 1  16.42294395019502  1.12696130883088 -0.32286877757776
 1  15.52171775517552  1.83553746654666 -2.15630701040104
 1  15.50464186878688  4.40265564356436 -1.19735173327333
 1  15.94073684378438  3.73175981738174  0.37661756215622
 1  18.38011169256925  2.89161065226523 -1.08494757435743
 1  16.65797651805180  4.62156868576858 -3.32440480028003
 1  18.36562248574857  4.31390090339034 -3.25454005910591
 1  16.93341354155416  2.97027809780978 -3.34448248284828
 1  18.35844189138914  4.94835605310531  0.23106477067707
 1  18.99609713201320  5.36358051025103 -1.38330524492449
 1  17.20972252315232  5.72732223532353 -0.70619468076808
 1 -5.11054635603560 -7.91297073017302  0.14021048334833
 1 -6.52926735703570 -6.92164925152515  0.69647315481548
 1 -5.07185535413541 -6.67752932853285  1.50474493109311
 8 -7.84511210281028  6.81507800860086 -0.33270105410541
 1 -9.07312560966097  6.19191483638364 -1.91167685048505

