%nproc=4
%Mem=2GB
# td=(NStates=1) iop(3/107=0140000000,3/108=0140000000) iop(3/107=0140000000,3/108=0140000000) CAM-B3LYP/6-31G(d,p) 

TD

0 1
12 -6.87002957505751  0.65179432353235  0.14435205470547
 6 -4.50733784028403 -2.03573199499950  0.69246952395240
 6 -4.26183799919992  2.83620525362536  0.94925780738074
 6 -9.10676338103811  3.21269529362936 -0.21472097379738
 6 -9.23202129972997 -1.61357438703870 -0.78567862656266
 7 -4.64061913381338  0.42142153985399  0.53028206030603
 6 -4.03001026662666 -0.87149685648565  0.75740629602960
 6 -2.44776819541954 -0.56102786198620  0.97844990729073
 6 -2.47261722752275  0.91118126692669  1.24597676017602
 6 -3.80501676457646  1.38614870007001  0.92725750045005
 6 -2.12080836653665  1.20831262716272  2.81865642844284
 6 -1.51231998039804 -0.77264982838284 -0.22866153985399
 6 -0.12918103640364 -1.12102380898090  0.27887696119612
 6  0.63636471567157 -1.44424166106611 -0.89632780658066
 8  0.54261432953295 -1.12208482098210 -2.10612160236024
 8  1.89280956755676 -2.20389068766877 -0.50243516601660
 7 -6.65472721492149  2.55424579457946  0.22452620052005
 6 -5.46831739263926  3.24836347954795  0.61766806300630
 6 -5.88779299449945  4.82830251505150  0.68870373897390
 6 -7.26361707510751  4.94887097759776  0.43477006030603
 6 -7.69583128702870  3.53454226262626  0.18348317971797
 6 -5.12638755905590  5.82137956845685  1.13883155115512
 6 -8.00123168446845  6.00251717181718  0.29496902060206
 8 -7.64074799099910  7.19170078667867  0.50039789658966
 7 -8.80415396889689  0.74423528272827 -0.34059670877088
 6 -9.59069274167417  1.77949268456846 -0.33719477177718
 6 -10.95510214051405  1.54107397849785 -0.61160694189419
 6 -10.95735009250925  0.14749565396540 -0.89275013051305
 6 -9.59176083938394 -0.40269843304330 -0.74292636933693
 6 -12.08401517681768  2.51780797389739 -0.73849850065007
 6 -12.24934805530553 -0.69826338863886 -1.37177531123112
 6 -12.11841870397040 -1.12168433363336 -2.89098189288929
 7 -6.85538202110211 -1.22430499179918 -0.22917556205621
 6 -7.97906056765676 -2.10698069476948 -0.46620981898190
 6 -7.61201878697870 -3.55676299869987 -0.40330134023402
 6 -6.24240986218622 -3.55828498939894 -0.03902216281628
 6 -5.91956824552455 -2.10136895139514  0.13745993029303
 6 -8.27484600810081 -4.69577695549555 -0.68027084298430
 6 -5.05121132563256 -4.33566936503650  0.15084311001100
 8 -4.90802255095510 -5.53937447574758 -0.10376987038704
 6 -3.98927265266527 -3.36657721692169  0.67789243644364
 6 -3.34566807770777 -3.67776395189519  1.88405811881188
 8 -3.90707594769477 -4.04325105990599  2.87444611441144
 8 -1.82926460136014 -3.58893519881988  1.76741668086809
 6 -1.06777529962996 -3.93603869396940  2.92552697789779
 6  3.02344423722372 -2.30507568446845 -1.48225947004700
 6  4.16329009640964 -1.30411741284128 -1.23185871817182
 6  5.18902965836584 -1.19889676107611 -2.08589479107911
 6  5.17051103490349 -1.91077421212121 -3.37480446264627
 6  6.23302712731273 -0.09185683858386 -1.80432699119912
 6  7.43976267026703 -0.79387516961696 -0.92959969726973
 6  8.40541310161016  0.34208984358436 -0.82374085458546
 6  9.74877796719672 -0.33798071837184  0.06453814811481
 6  9.37694521082108 -0.67329614431443  1.43517788658866
 6  10.88520085008501  0.82627748194819  0.10639547794779
 6  12.35890116061606 -0.09183787658766  0.46614492569257
 6  13.46513805640564  1.10975825052505  0.25124802320232
 6  14.81189752495250  0.44635791389139  0.58017267936794
 6  14.87725271337134  0.07213493299330  2.16865678967897
 6  15.96111573997400  1.45375027702770  0.00027323262326
 6  17.12078155625563  0.81809703410341 -0.14504137803780
 6  18.50280982838284  1.68046523772377 -0.30225037183718
 6  19.95360756185618  0.88140663546355 -0.20501058475848
 6  20.19950975227523  0.30764619491949 -1.55203099429943
 6  21.03119028792879  1.82027344534453 -0.06350144604460
 1 -3.15430606890689  3.71327257825783  1.05393479517952
 1 -9.63283726622662  3.95488457355736 -0.32368600250025
 1 -10.28240073167317 -2.37288768806881 -0.74633745964596
 1 -1.97894041084108 -1.31941955975598  1.64563461176118
 1 -1.67645698429843  1.73964444064407  0.67481393479348
 1 -1.32113349704970  0.50018833323332  3.25326603770377
 1 -2.19399757365737  2.16907548394839  3.11865798359836
 1 -2.73679601210121  0.79000688598860  3.75265113421342
 1 -1.75535455575558 -1.67814908790879 -0.82242002880288
 1 -1.73143831283128  0.20824935203520 -0.75115490629063
 1  0.47392539083908 -0.53059449274928  0.89793565876588
 1 -0.52304602440244 -1.93629996379638  1.01031126322632
 1 -4.31375590599060  5.80568839673967  0.65479043674368
 1 -5.72428270887089  6.92949562546255  1.00923782988299
 1 -5.00069109730973  5.63403236423643  2.18984675697570
 1 -8.97367038113812  5.56668177737774 -0.17969434523452
 1 -12.42708226182618 -1.46878774627463 -0.41277570477048
 1 -12.85692190719072  0.05281168096810 -0.95469310571057
 1 -12.97077490059006 -1.47039915531553 -3.08698581568157
 1 -11.71449841364137 -0.52459503800380 -3.29310147964797
 1 -11.73964078847885 -2.07350066706671 -3.22277888528853
 1 -8.40977016031603 -4.85927248284828 -1.73638586658666
 1 -7.91664687928793 -5.64940495309531 -0.33207285918592
 1 -9.02508978897890 -4.80470243144314 -0.08821421192119
 1 -3.30204978637864 -3.29749347424743 -0.51543985078508
 1  3.46692830823082 -3.51931920572057 -1.19752546964696
 1  2.71742603140314 -2.38981489648965 -2.47052728802880
 1  4.00324765246525 -0.61294404280428 -0.56856325472547
 1  4.70714377137714 -1.43404687718772 -4.41072118711871
 1  5.92162574097410 -1.89126780218022 -3.82649387328733
 1  4.63074690209021 -2.93918653295330 -3.11832601640164
 1  6.48603902580258  0.40623596099610 -2.86062868006801
 1  5.65781089048905  0.85930147794779 -1.05954021742174
 1  6.97300847974797 -1.20203840094009  0.22114383598360
 1  7.91037643604360 -1.74992378267827 -1.57976745264526
 1  8.71465359675967  0.81872246704670 -1.99925271057106
 1  8.08789728782878  1.30059524772477 -0.02351664326433
 1  10.53099554665467 -1.11496894059406 -0.54723188078808
 1  8.45648789308931 -1.45381419711971  1.63647200800080
 1  10.10374644404440 -1.32976685788579  2.08816070747075
 1  9.04073728532853  0.43251202880288  1.75371667676768
 1  10.68473211101110  1.37830058995900 -0.90009718131813
 1  10.42777252385238  1.55957483308331  0.95670955125513
 1  12.23424096629663 -0.29830226972697  1.79220290359036
 1  12.74319647364737 -0.97197541814181 -0.33598659615962
 1  13.55654052405241  1.53414295929593 -0.85814471907191
 1  13.39820186498650  2.10911516281628  0.98059384878488
 1  14.92368379417942 -0.68936645264526 -0.06128431963196
 1  14.40007990789079  1.30029042454245  2.67052982598260
 1  14.65461273477348 -0.93967163906391  2.66388388648865
 1  16.05500253335333 -0.06688027112711  2.38737521522152
 1  15.59043017791779  1.69821981538154 -0.91944191889189
 1  16.22694672727273  2.31269080458046  0.62468079127913
 1  17.42257357245725  0.42389556015602  0.94888507520752
 1  16.79445696989699 -0.14204603540354 -0.86442782018202
 1  18.02689769686969  2.48342489028903 -1.10854384268427
 1  18.42898289438944  2.40006391329133  0.25754242474247
 1  19.84853741494150  0.34463730993099  0.73631698249825
 1  20.27991630963096  0.74264931453145 -2.51040316551655
 1  21.00812510251025 -0.73611541334133 -1.54886902030203
 1  19.00039276627663 -0.37946566496650 -1.79708778347835
 1  20.97321410001000  2.41197077617762  0.82905365896590
 1  22.12070981128113  1.26674325702570 -0.42607532253225
 1  20.79830648354836  2.73613110031003 -0.63022781908191
 1  0.05279965486549 -4.43919666906691  2.37142549054906
 1 -1.79990967196720 -4.91402867656766  3.53380401700170
 1 -0.62557657095710 -2.57907638473847  3.18501265446545
 8 -11.80642901720172  3.78153295249525 -0.50820263396340
 1 -13.14276478797880  2.27262850295030 -0.94251485648565

