%nproc=4
%Mem=4GB
# td=(NStates=1) iop(3/107=0140000000,3/108=0140000000) iop(3/107=0140000000,3/108=0140000000) CAM-B3LYP/6-31G(d,p) 

TD

0 1
12 -5.64257576417642  1.29910478477848  0.11833043824382
 6 -4.94356474367437 -2.13063152645265 -0.42407927472747
 6 -3.44337312641264  1.11629191399140  2.73817919121912
 6 -6.21999079477948  4.53858712291229  0.77467767656766
 6 -7.98827459455946  1.11829267996800 -2.37687536103610
 7 -4.50774502780278 -0.31462965476548  1.01065240404040
 6 -4.22759628712871 -1.61150485208521  0.56556890649065
 6 -3.25544866936694 -2.29265256805681  1.39538390209021
 6 -2.98234140514051 -1.38405129602960  2.58195475157516
 6 -3.59758718611861 -0.11403403110311  2.08185277047705
 6 -3.44935797519752 -1.75520896229623  3.96983968336834
 6 -2.00952614581458 -2.75517292659266  0.73105841134113
 6 -0.96247789128913 -3.59531711231123  1.55794938293829
 6  0.26759185968597 -3.89934377507751  0.65061325602560
 8  0.54946501080108 -3.47084439803980 -0.42779901410141
 8  1.06912375807581 -4.81618123542354  1.34313892119212
 7 -5.03269408570857  2.59783916081608  1.56598683038304
 6 -3.97570966076608  2.40352777447745  2.45494609790979
 6 -3.75740524422442  3.60551905410541  3.24470502670267
 6 -4.56667722042204  4.55642717101710  2.69522879417942
 6 -5.36823292749275  3.92485058025803  1.60387647994799
 6 -3.01159652275228  3.70098747454745  4.52380657005701
 6 -4.74893142374237  5.93305072557256  3.05741524632463
 8 -4.00605065306531  6.56156404440444  3.87085098499850
 7 -6.76033983388339  2.59196909270927 -0.78688034433443
 6 -6.95190790559056  3.97569718691869 -0.33282497119712
 6 -7.85601078747875  4.61768849364936 -1.20588469796980
 6 -8.33225267856786  3.71052798269827 -2.07353629802980
 6 -7.71257014751475  2.42023803260326 -1.75595154165417
 6 -8.26796978787879  6.07205711511151 -1.17962747154715
 6 -9.19555391869187  3.87252765096510 -3.24098873167317
 6 -8.53240469416942  3.97506565276528 -4.57090349434943
 7 -6.40407882688269 -0.18335335303530 -1.07323241524152
 6 -7.35131466106611  0.00867479887989 -2.07643185388539
 6 -7.57047455465547 -1.32429413301330 -2.73904642724272
 6 -6.71756130493049 -2.17974754655466 -2.02037820352035
 6 -5.95165358075808 -1.41789535463546 -1.14196032643264
 6 -8.60386584438444 -1.77196732273227 -3.65576247244724
 6 -6.13519718681868 -3.57290287418742 -2.02478603370337
 8 -6.56004039953995 -4.50683838223822 -2.72077834293429
 6 -4.96559512161216 -3.56944499709971 -1.02935525532553
 6 -5.32071954935493 -4.67119256035604  0.05537920972097
 8 -5.75442121372137 -4.29942895099510  1.12948931233123
 8 -4.98367806600660 -5.83598479487949 -0.39366251085109
 6 -5.28136570077008 -6.93879573287329  0.52424425422542
 6  2.33928490169017 -5.05855697589759  0.54929888428843
 6  3.36616115111511 -4.10940110101010  0.97885578537854
 6  3.97422681288129 -3.06904977507751  0.23465710071007
 6  3.68312265116512 -2.95060000130013 -1.25746525102510
 6  5.15605203100310 -2.36881192879288  0.78271207000700
 6  6.49646451775178 -2.67381030623062  0.05385685308531
 6  7.62219754335434 -1.74088344384438  0.67295298579858
 6  9.03228404970497 -1.99978481208121  0.04934715221522
 6  9.61325770747075 -3.35713635403540  0.45882242454245
 6  10.03567414651465 -0.83843408080808  0.43393590909091
 6  11.25237253965397 -0.82112171907191 -0.34838360456046
 6  12.28347603620362  0.29266389388939  0.11365821342134
 6  13.54248670447045  0.44769963986399 -0.64107887108711
 6  14.41247954695470 -0.82627202980298 -0.43888803970397
 6  14.32497843744374  1.72417858945895 -0.30007926272627
 6  15.44720891129113  2.16215424362436 -1.21604659965997
 6  15.95076766116612  3.51023577637764 -0.71670228342834
 6  17.28812406150615  3.81772961456146 -1.37466140134013
 6  17.07102969266927  3.96890178187819 -2.90009223342334
 6  17.84964437053705  5.14729999529953 -0.77100655955596
 1 -2.75404112691269  0.97768204360436  3.36625709410941
 1 -6.46709468826883  5.66887226762676  1.00796978867887
 1 -8.69798020522052  1.17515781868187 -3.11147662646265
 1 -3.70404146894689 -3.20191550695069  1.71984004480448
 1 -1.86018314221422 -1.06830449204920  2.54161543764376
 1 -3.08135791489149 -2.70496365756576  4.51611515551555
 1 -3.00222101480148 -1.06212611701170  4.59412144194420
 1 -4.61303381508151 -1.86372545344534  3.81454540504050
 1 -2.03334864856486 -3.53637315461546 -0.29427005080508
 1 -1.46957478987899 -1.95346446274627  0.21384950655065
 1 -0.79621505500550 -3.08862015761576  2.55751997069707
 1 -1.66122084368437 -4.56518364956496  1.66313811181118
 1 -1.96918703250325  3.55038456285629  4.48579448914891
 1 -3.00805179527953  4.81356856285629  4.86576283398340
 1 -3.35582857785778  2.94727572507251  5.28806381238124
 1 -5.42816588048805  6.67052124652465  2.46373169456946
 1 -9.81600073357336  3.00666132323232 -3.30119337103710
 1 -9.93827462536254  4.49815365946595 -3.17417770847085
 1 -9.19193899369937  4.09937835183518 -5.30854605690569
 1 -7.79078858825883  4.75631537693769 -4.61906186118612
 1 -7.97823767276728  3.16053541234123 -4.78018794359436
 1 -8.39755734533453 -1.28107865076508 -4.64000499879988
 1 -8.64547553055306 -2.98132153725373 -3.89241187818782
 1 -9.47834791429143 -1.47690451385139 -3.50981788848885
 1 -3.97516487388739 -3.67015184178418 -1.48904219111911
 1  2.55583671667167 -6.06893483648365  0.89684564146415
 1  2.29373011641164 -5.10840781688169 -0.50271372097210
 1  3.59886200850085 -3.87070635243524  2.04963997159716
 1  2.59851483818382 -3.08431405250525 -1.41124366536654
 1  3.84792940624062 -1.88675223452345 -1.39049151965196
 1  4.50889306330633 -3.50151388058806 -1.82382130803080
 1  5.11861190209021 -1.08135455945595  0.78190007350735
 1  5.05793432073207 -2.53912554495450  1.87966284658466
 1  6.84384191089109 -3.68982217431743 -0.03301541754175
 1  6.29705986638664 -2.49884749374938 -0.95721631713171
 1  7.29903883518352 -0.58794211931193  0.60573781928193
 1  7.77242934583458 -1.88754533763376  1.80755514081408
 1  8.81861597089709 -2.02530080528053 -1.06036937503750
 1  8.87849236793679 -4.23361213261326  0.02966917451745
 1  10.54567390819082 -3.73376757885789  0.08758864536454
 1  9.65865492689269 -3.38092918441844  1.49983042574257
 1  9.42778192879288  0.04853057925793  0.68840420422042
 1  10.36960705820582 -0.87558409230923  1.59029856985699
 1  11.90125526682668 -1.71367139903990 -0.50311468466847
 1  11.00466655335534 -0.33962686758676 -1.35608694229423
 1  11.89521055455546  1.45460989018902  0.12536298109811
 1  12.51969679297930  0.06837802920292  1.14222250245025
 1  13.50201700240024  0.42382681498150 -1.81852409110911
 1  14.67711705000500 -1.14859307200720  0.65341102110211
 1  14.10798636963696 -1.70653967026703 -1.10818714021402
 1  15.40832182058206 -0.98535173337334 -1.06497338983898
 1  13.57627582178218  2.57841246034603 -0.24032582028203
 1  14.61841854215422  1.63844413361336  0.80910812471247
 1  16.34294595039504  1.49227784048405 -1.15479196989699
 1  14.97707329072907  2.29299321212121 -2.08314969466947
 1  15.27556896149615  4.20644602260226 -1.09584158225823
 1  15.95476824692469  3.50632727412741  0.37348724912491
 1  18.07515119651965  3.01276276747675 -0.97425650525053
 1  16.33540426082608  4.91290781968197 -3.06904926472647
 1  18.06973289678968  4.42482199549955 -3.32113671877188
 1  16.62367256745675  3.28601967196720 -3.52099013361336
 1  18.00476652385238  4.94928614611461  0.27343900810081
 1  18.66421394369437  5.35510966316632 -1.45308222262226
 1  17.03481503240324  5.91006050915091 -0.88151221252125
 1 -5.08910421182118 -7.70127956105611  0.06558302060206
 1 -6.45744017431743 -6.99748683528353  0.60753426092609
 1 -4.90221839043904 -6.58179975557556  1.62865732233223
 8 -7.75416300790079  7.01081758255826 -0.54623240724072
 1 -9.02468076517652  6.28996464136414 -2.02859854265427

