%nproc=4
%Mem=2GB
# td=(NStates=1) iop(3/107=0140000000,3/108=0140000000) iop(3/107=0140000000,3/108=0140000000) CAM-B3LYP/6-31G(d,p) 

TD

0 1
12 -6.79217178927893  0.70891003510351 -0.06338871937194
 6 -4.59483659015902 -2.01123954575458  0.39037931493149
 6 -4.30518233363336  2.78331996509651  0.96065894749475
 6 -9.08914161886189  3.19714373847385 -0.22900240194019
 6 -9.35462355995600 -1.75697872747275 -0.79887994669467
 7 -4.85272034393439  0.37041643934393  0.52732176427643
 6 -4.08285555115512 -0.68481818861886  0.62275283068307
 6 -2.56722014061406 -0.44269602880288  0.97146920922092
 6 -2.58237820362036  1.13606375517552  1.31636379887989
 6 -4.05817208010801  1.45474555975598  0.93654842954295
 6 -2.34072035773577  1.68973076897690  2.65226978977898
 6 -1.67740648904891 -0.93170573397340 -0.21281995569557
 6 -0.25432355065507 -1.13661536813681  0.37851692519252
 6  0.68889996919692 -1.10036727362736 -0.77139531333133
 8  0.63946401450145 -0.79993260576058 -1.94769575977598
 8  1.98006829342934 -1.65188548714871 -0.26966188868887
 7 -6.77772951515152  2.56670704070407  0.22226597449745
 6 -5.65244580548055  3.28481712491249  0.71330762696270
 6 -5.99671388658866  4.73858354315431  0.75083995259526
 6 -7.14579529292929  4.85081117161716  0.23622020532053
 6 -7.82036374027403  3.53188199659966 -0.04880004860486
 6 -5.11343626392639  5.79522695319532  1.26416408440844
 6 -8.01974353565357  6.19455637573757  0.20319984368437
 8 -7.80896481268127  7.24917653425343  0.65413327012701
 7 -8.76246980048005  0.68579943914391 -0.49453210231023
 6 -9.47286095849585  1.74016875217522 -0.38485953825383
 6 -10.94065069536954  1.51796166726673 -0.73911969316932
 6 -10.88963332083208  0.06067697209721 -0.88635949144914
 6 -9.70753241654165 -0.38836699989999 -0.65089716641664
 6 -11.88727550285028  2.42567876097610 -1.15305995679568
 6 -12.21720484098410 -0.77718128042804 -1.24681281498150
 6 -12.12413927602760 -1.19682184738474 -2.60026282098210
 7 -6.94586106900690 -1.33305586688669 -0.19040168466847
 6 -8.08549121072107 -2.21977197389739 -0.45030822882288
 6 -7.70874845994600 -3.68932625502550 -0.31695270537054
 6 -6.25829145034503 -3.64296345724572 -0.13314157475748
 6 -5.92454874357436 -2.18981779627963  0.01105729002900
 6 -8.31494001750175 -4.88809618741874 -0.77755057095710
 6 -5.17070327482748 -4.43058885698570  0.17315534123412
 8 -5.01968371707171 -5.69174971327133  0.20314082068207
 6 -3.89703342874287 -3.35790634983498  0.53145779297930
 6 -3.41530504140414 -3.71897807330733  1.92290200320032
 8 -4.04770001010101 -3.78109484428443  2.87257592739274
 8 -1.92693436833683 -3.59411571687169  1.73377331653165
 6 -1.34422294439444 -3.93582867296730  2.72973739893989
 6  3.00100199299930 -1.94121929882988 -1.47250849494949
 6  4.16373014041404 -1.19406640774077 -1.04262979527953
 6  5.14353510891089 -1.03854072547255 -1.81029723132313
 6  5.49605358915892 -1.60248338303830 -3.15837281948195
 6  6.33312713731373 -0.12154980788079 -1.45039159765977
 6  7.52805149914991 -0.82446822892289 -0.67265400270027
 6  8.73777633793379  0.12958859345935 -0.37412589308931
 6  9.97209029842984 -0.56381330163016  0.17173886818682
 6  9.63093060936093 -1.12679149384938  1.58291266006601
 6  11.10270260026003  0.42153700790079  0.19460429882988
 6  12.49250452095209 -0.21476016881688  0.45301361256126
 6  13.63848539113911  0.91124839953995  0.62137503590359
 6  15.02027836303630  0.08279155725573  0.45470013211321
 6  15.21936692479248 -0.67399968046805  1.64702462646265
 6  15.98484811321132  1.22890779277928  0.24747795309531
 6  17.34721419951995  0.67849307370737 -0.16892376627663
 6  18.42062160956096  1.85345253645365 -0.21925207200720
 6  19.95815801690169  1.21701019581958 -0.56566665036504
 6  20.08695849714972  0.58768419871987 -2.05224101530153
 6  21.00652782168217  2.34017543554355 -0.34956005190519
 1 -3.52947358565857  3.56494774577458  1.58693809550955
 1 -10.00269425192519  4.03058214331433 -0.48718235213521
 1 -10.10981347294729 -2.25785618491849 -1.13456628252825
 1 -2.31994451125113 -0.93702131993199  2.04314436273627
 1 -1.73906324492449  1.40437091329133  0.45344179757976
 1 -1.41818320202020  1.33048136253625  3.36433714481448
 1 -2.57903607750775  3.12223079947995  2.69080519831983
 1 -2.97287962046205  1.46494437973798  3.14827069616962
 1 -2.01854087438744 -1.59144041704170 -0.63008079487949
 1 -1.72497766676668 -0.15147662056206 -0.82933272407241
 1 -0.20624262596260 -0.29137057035704  1.30951681688169
 1 -0.40403412321232 -2.19735606940694  0.82187241934193
 1 -4.37808233863386  5.95609343724372  0.52946790449045
 1 -5.45697597819782  6.81115379127913  1.25706261236124
 1 -4.64798582678268  5.82617157815782  2.24809258155816
 1 -9.06277929202920  6.31873698289829  0.15836946114611
 1 -11.83859341294129 -1.70552141964196 -0.66805123232323
 1 -12.99004521952195 -0.51546514671467 -1.08540617701770
 1 -12.77811563466347 -1.85345746114611 -2.84033115021502
 1 -12.04956191999200 -0.43287586608661 -3.09731190069007
 1 -11.11801862626263 -1.75714903190319 -2.98251485888589
 1 -8.94162334563456 -4.54756131173117 -1.51271349934993
 1 -7.59408462306231 -5.79438945154515 -1.18906855875588
 1 -9.00485776577658 -5.59951191239124  0.09175378487849
 1 -2.77372695409541 -3.13339706460646 -0.10949925672567
 1  3.24896651205120 -2.82213948774877 -1.54749046614661
 1  2.40697498629863 -1.50812672767277 -2.67456769206921
 1  4.07834516221622 -0.97831057945795 -0.01654805320532
 1  4.85912896989699 -1.35271874437444 -3.76086620162016
 1  6.44438801720172 -1.37251592699270 -3.47454867876788
 1  5.73580740814081 -2.35803841814181 -2.97092127592759
 1  6.65612603450345  0.52761809920992 -2.03810642784278
 1  5.94420953035304  0.47265281308131 -0.83733799719972
 1  7.11893307220722 -1.34892308940894  0.12335405700570
 1  8.12161756015601 -1.53382217251725 -1.32096157205721
 1  9.01543367476748  0.88157875267527 -1.31503428872887
 1  8.48804730283028  0.88589377757776  0.53906961536154
 1  10.14746719381938 -1.33795123882388 -0.30186734433443
 1  8.88104034833484 -1.80720953665366  1.41187954875488
 1  10.45515158455846 -1.40772465366537  1.90548243964396
 1  9.20718392999300 -0.68036925932593  2.42065337043704
 1  11.02085572337234  0.94430719061906 -0.56013318491849
 1  10.71925167176718  0.96717559315932  0.97851173147315
 1  12.51989953215321 -0.85755819531953  1.18793247654765
 1  12.82524467846785 -0.95824404500450 -0.42179517701770
 1  13.60459532953295  1.67736728172817 -0.14871377597760
 1  13.59314135893589  1.45805005630563  1.58088387778778
 1  14.69543096889689 -0.62955047104711 -0.54873306450645
 1  15.23371327122712 -0.26158576307631  2.69850262326233
 1  14.53941121462146 -1.49881755365536  1.76057355545555
 1  16.13291032413241 -0.98502208530853  1.63335981368137
 1  15.82103323822382  2.00700069346935 -0.83364333903390
 1  16.01441547414742  1.87115665116512  1.04360268346835
 1  17.53298461356135 -0.26596342574258  0.38334852155215
 1  17.30666819101910  0.37066523572357 -1.50639201660166
 1  18.12145715281529  2.68650519831983 -1.06229921822182
 1  18.33967396349635  2.48144205110511  1.22573924442444
 1  19.92750531173117  0.23126597279728  0.08098144894490
 1  19.90636895489549  1.51378642824283 -2.75773789898990
 1  20.92470676067607  0.14039223742374 -2.04961909530953
 1  19.14343707070707  0.05223750535053 -2.14563263796380
 1  20.98558533713371  2.88926850595059  0.71090184378438
 1  22.50531827212722  2.03720030273027 -0.61958467346735
 1  20.66658331123112  3.17285477267727 -1.23353815011501
 1 -0.48637426252625 -4.51749449884989  2.22742109010901
 1 -1.91666134713471 -4.47116439013901  3.36122675927593
 1 -1.03350736403640 -3.05460393749375  3.19231338453845
 8 -11.93283165746575  3.60250504970497 -0.75608742244224
 1 -12.66974748624863  1.92088332843284 -1.71747235223522

