%nproc=4
%Mem=4GB
# td=(NStates=1) iop(3/107=0140000000,3/108=0140000000) iop(3/107=0140000000,3/108=0140000000) CAM-B3LYP/6-31G(d,p) 

TD

0 1
12 -5.66694820142014  1.29647452175218  0.21954055925593
 6 -4.93496388358836 -2.14240270357036 -0.43993085988599
 6 -3.44638342744274  1.11134141894189  2.83930930423042
 6 -6.24584338003800  4.54780804500450  0.75006521532153
 6 -8.02181794889489  1.21177202790279 -2.36148382188219
 7 -4.37093134643464 -0.29041723352335  1.09175051385138
 6 -4.19151267876788 -1.66855055665567  0.66736908650865
 6 -3.13351647614761 -2.32300560336034  1.46258062176218
 6 -2.79533270427043 -1.34738762966297  2.60497705380538
 6 -3.47820524792479 -0.13471609930993  2.16313089828983
 6 -3.39253229262926 -1.80889433083308  3.95414811421142
 6 -1.85073026622662 -2.73332074137414  0.68962426792679
 6 -1.02435407890789 -3.67268484908491  1.48505209320932
 6  0.19345444594459 -3.96646048674867  0.68993718841884
 8  0.34691475577558 -3.61550886448645 -0.53084931913191
 8  1.10728757445745 -4.73342295959596  1.34139874717472
 7 -4.91849266556656  2.60064944184418  1.56164639633963
 6 -4.02667475727573  2.42296971867187  2.52578318161816
 6 -3.78003750745075  3.63480198239824  3.19807036323632
 6 -4.55783633633363  4.60214174247425  2.65208447974798
 6 -5.33966007020702  3.93297139233923  1.60343643594359
 6 -2.82958832193219  3.84199157495750  4.36081027042704
 6 -4.83063959455946  5.97573499399940  3.04895440024002
 8 -4.16309635763576  6.52428031603160  3.90408430833083
 7 -6.86960075997600  2.58100799659966 -0.72352400870087
 6 -6.88864157895790  3.93763338053805 -0.38742043074307
 6 -7.92300748714871  4.58025475027503 -1.14550866036604
 6 -8.35255470877088  3.69714664456446 -2.13514245864586
 6 -7.73632252275228  2.41588759755976 -1.86899284578458
 6 -8.39162215311531  6.05044495389539 -1.16023553235324
 6 -9.45642000530053  3.78143854205421 -3.27396202900290
 6 -8.77528898259826  4.08034618081808 -4.64789119311931
 7 -6.35204362336234 -0.10845586328633 -1.10154524652465
 6 -7.34211374097410 -0.03678974757476 -2.18823303400340
 6 -7.54968247544755 -1.32643434703470 -2.75387791039104
 6 -6.73914346314631 -2.16284585638564 -2.09219538523852
 6 -5.93322173757376 -1.41453501860186 -1.16762289268927
 6 -8.50832629042904 -1.52257238323832 -3.91955885208521
 6 -6.19409307640764 -3.59573515741574 -2.00330388548855
 8 -6.58984337983798 -4.46488418681868 -2.70138640374037
 6 -5.07905646774677 -3.55527357995800 -0.93698601840184
 6 -5.27354483188319 -4.58478391949195  0.13572724452445
 8 -5.72922869446945 -4.40588959705971  1.20850721412141
 8 -4.98691839003900 -5.81339253565356 -0.35107825242524
 6 -5.33380094429443 -6.86610846414641  0.44303613341334
 6  2.31821279447945 -5.06039715991599  0.73214716911691
 6  3.42104663966397 -4.08028818971897  1.17117501730173
 6  4.08610800100010 -3.19774264436444  0.31993562856286
 6  3.72919725862586 -3.06320126142614 -1.14104360886089
 6  5.14374079987999 -2.27752279987999  0.85793959275928
 6  6.54678955025503 -2.66842976817682  0.16882835023502
 6  7.69317464106411 -1.73989334483448  0.63118880938094
 6  8.97260808210821 -1.96199103270327 -0.21115889838984
 6  9.52372875457546 -3.24514515491549  0.14429097139714
 6  9.97897847694770 -0.75028526592659  0.25283779927993
 6  11.31679898229823 -0.88773838073807 -0.30466923312331
 6  12.13620130873087  0.33835846334633  0.05340218781878
 6  13.57122957875788  0.47701257115712 -0.63700846404640
 6  14.34574287328733 -0.83639304190419 -0.48590274117412
 6  14.40484642424242  1.70930710231023 -0.19447870267027
 6  15.59106329672967  1.94018204640464 -1.02974796979698
 6  16.12839542394239  3.38869362216222 -0.67174778797880
 6  17.45499074817482  3.89977781938194 -1.39046298149815
 6  17.18191078077808  3.97988287998800 -2.87018924312431
 6  17.92894230033003  5.26319158445845 -0.79018847774777
 1 -2.55379110191019  1.30758503390339  3.60871133953395
 1 -6.54178215701570  5.63592897329733  0.80722971467147
 1 -8.49550995819582  1.25376567946795 -3.30140561936194
 1 -3.78465953075308 -3.28560387578758  1.75330339113911
 1 -1.63004012791279 -1.36323398499850  2.78296957305731
 1 -2.98061784088409 -2.75293845504550  4.33936748074808
 1 -3.44847564026403 -1.09097900230023  4.85215724552455
 1 -4.75198771047105 -2.06432551345135  3.81886583708371
 1 -2.08690400410041 -3.07418693599360 -0.46788741254125
 1 -1.38516634903490 -1.73966308260826  0.40231835343534
 1 -0.68798423192319 -3.27022831843184  2.35911012971297
 1 -1.40441516311631 -4.71815894709471  1.67477927592759
 1 -1.72247236103610  3.43438296269627  3.86975288498850
 1 -3.09939092919292  4.79441664766477  4.78560481818182
 1 -3.10848384338434  3.18458945644564  5.08129313531353
 1 -5.56147921182118  6.55457965236524  2.35709103050305
 1 -9.88398753225323  2.68964962206221 -3.29780303200320
 1 -10.23598439633964  4.45152899699970 -2.97817810851085
 1 -9.64333413321332  4.04107252125213 -5.29973517581758
 1 -8.11364087348735  4.92564230963096 -4.66354630963096
 1 -8.06783663266327  3.22882224102410 -4.99884980978098
 1 -7.97076466606661 -1.00504104700470 -4.86955795409541
 1 -8.62690367336734 -2.64925833093309 -4.09224186118612
 1 -9.31517159665967 -1.08794561796180 -3.60275718241824
 1 -4.10880823822382 -3.99229405600560 -1.56255954285429
 1  2.43755488848885 -6.09336727972797  1.13732968986899
 1  2.14890563396340 -5.00738771487149 -0.30132358195820
 1  3.71246336863686 -4.29743902570257  2.06764177177718
 1  2.64997998469847 -3.20201582268227 -1.26926946794679
 1  3.81812642594259 -1.91653521282128 -1.56748921942194
 1  4.16030820482048 -3.68863259245925 -1.80463938983898
 1  5.05493553445345 -1.17861428542854  0.63571545504550
 1  5.34257278457846 -2.31499313171317  1.91588646894689
 1  6.67318484518452 -3.70790398249825  0.33615149914992
 1  6.25989615001500 -2.51685929492949 -0.76273686918692
 1  7.22731166246625 -0.72968629372937  0.58818606410641
 1  7.91765386828683 -1.87295387848785  1.61594597989799
 1  8.66231034033403 -1.71759003420342 -1.17579091719172
 1  8.68010252895289 -4.17167593899390 -0.16892068446845
 1  10.27883722452245 -3.41888609070907 -0.54918503200320
 1  9.70876993839384 -3.47692878437844  1.24791523422342
 1  9.53233238383839  0.26594232043204  0.13643900770077
 1  10.09285938343834 -0.99742627652765  1.41507104710471
 1  11.75276041734173 -1.92542257415742  0.02061768856886
 1  11.19614570127013 -1.14571747664766 -1.47040837443744
 1  11.65488652215222  1.38439286848685 -0.16722627782778
 1  12.42715753905390  0.56132732413241  1.14151243144314
 1  13.18721552225222  0.64369880218022 -1.76392863156316
 1  14.32749208750875 -1.10883909660966  0.65347102710271
 1  13.88670424142414 -1.63815283158316 -1.14339066056606
 1  15.53976496489649 -0.63628682688269 -0.71869876237624
 1  13.61498969316932  2.58726334543454 -0.13891567926793
 1  14.79044574487449  1.57498778797880  0.89155636953695
 1  16.42126378217822  1.16405501820182 -0.90787727842784
 1  15.38896447984798  2.16596050885089 -2.09945132483248
 1  15.41621302590259  4.13256863486349 -0.93387538563856
 1  16.30853362346235  3.33850049144914  0.39951985238524
 1  18.19226290769077  2.92007349854985 -1.23497257685769
 1  16.46299702010201  4.63152968186819 -3.24095645544554
 1  18.21388731223123  4.37442695599560 -3.36738134323432
 1  16.96184638483848  2.98754982498250 -3.22145017961796
 1  17.97477352455245  5.40001121862186  0.38685034923492
 1  18.95564308660866  5.18031218341834 -1.16342325672567
 1  17.42154370527053  6.10983048614862 -1.14120818211821
 1 -5.05510081148115 -7.77852728582858 -0.16115965366537
 1 -6.50206463676368 -6.95345243184318  0.52018552605261
 1 -4.85502367096710 -6.77529910551055  1.45262971957196
 8 -7.99064665626563  6.85252175297530 -0.44977276127613
 1 -9.10484878197820  6.39575522042204 -1.93400908370837

