%nproc=4
%Mem=2GB
# td=(NStates=1) iop(3/107=0140000000,3/108=0140000000) iop(3/107=0140000000,3/108=0140000000) CAM-B3LYP/6-31G(d,p) 

TD

0 1
12 -6.72252482458246  0.51309045314531 -0.04904728522852
 6 -4.56223332983298 -2.04664308610861  0.35249552655266
 6 -4.21924373977398  2.79017065016502  1.06716959855986
 6 -8.90978368306831  3.21894591869187 -0.20612011371137
 6 -9.47428552615262 -1.71616464606461 -0.65444550325033
 7 -4.53711878377838  0.21725112281228  0.47038607070707
 6 -3.92261952755276 -0.86464617141714  0.70032058745875
 6 -2.52426584518452 -0.71344310351035  0.92060412271227
 6 -2.43426339213921  0.80825097389739  1.26439860236024
 6 -3.70946720962096  1.30981106630663  0.90608538323832
 6 -2.13944022972297  1.18496029192919  2.75799036183618
 6 -1.42792154055406 -1.08046060946095 -0.03013168686869
 6 -0.04299241754175 -1.24848655525553  0.44298337183718
 6  0.78794987418742 -1.51483872077208 -0.71599977377738
 8  0.63642371047105 -1.13877649014901 -1.80932192239224
 8  2.00510079667967 -2.18142844144414 -0.25365028752875
 7 -6.47200894309431  2.51423179317932  0.27516126402640
 6 -5.37580814171417  3.26634527772777  0.78115441164116
 6 -5.76031024622462  4.76173585838584  0.66697156575658
 6 -7.08653936733673  4.87272336283628  0.25685226852685
 6 -7.51742344624462  3.49022783118312  0.05924075547555
 6 -4.70268518881888  5.74847227772777  1.15306297429743
 6 -7.96268783008301  6.06674359445945  0.06623614731473
 8 -7.51919583578358  7.07685930253025  0.47967582438244
 7 -8.78227178067807  0.74500535973597 -0.16394904400440
 6 -9.42463613601360  1.88004273957396 -0.42439349164917
 6 -10.78453508380838  1.62462233333333 -0.80844662586259
 6 -11.02508686618662  0.23095399979998 -0.66138699419942
 6 -9.70177184048405 -0.33536169936994 -0.44864694139414
 6 -11.79806658195819  2.74357055015502 -1.00087473827383
 6 -12.24661778227823 -0.54226778907891 -1.26370450415041
 6 -12.02634949704971 -0.66742890809081 -2.76908970367037
 7 -7.02754923782378 -1.43291585288529 -0.12007465196520
 6 -8.07181984358436 -2.14552454915492 -0.40167336533653
 6 -7.73728131323132 -3.59264658705871 -0.43181419151915
 6 -6.37699332053205 -3.76113527442744 -0.07930619121912
 6 -5.93805009370937 -2.23443225772577  0.08071425572557
 6 -8.74120264376438 -4.64216159395940 -0.79505232113211
 6 -5.16034223872387 -4.42849864796480  0.00974900060006
 8 -4.89606135483548 -5.56106664496450 -0.26779627302730
 6 -4.05361908730873 -3.42655321452145  0.46956160336034
 6 -3.38944245514551 -3.75263143864386  1.87746745974598
 8 -4.11786702680268 -4.01784851965197  2.88727739753975
 8 -2.02795447034703 -3.49926623192319  1.89630957015702
 6 -1.02135065716572 -3.91077616771677  3.07820224542454
 6  3.05292718551855 -2.35808098499850 -1.30285152925293
 6  4.10506427382738 -1.29225622672267 -0.96168170047005
 6  5.04108486388639 -1.03823069446945 -1.92396859845985
 6  5.06504048784879 -1.60778391309131 -3.13764074627463
 6  6.08032185678568 -0.01145879877988 -1.69788634713471
 6  7.34967366136614 -0.59070485258526 -1.32508924622462
 6  8.58267082738274  0.38860449504950 -0.81925040554055
 6  9.73773686308631 -0.27381430173017 -0.06002430813081
 6  9.51453897019702 -0.68614742944294  1.47234160296030
 6  10.95557788778878  0.64250910511051 -0.13055821742174
 6  12.29827509800980  0.10340164736474  0.16938524972497
 6  13.49071061366137  1.05065233993399  0.47991088948895
 6  14.77471380658066  0.51973525162516  0.56987164926493
 6  14.89827481558156  0.04368208770877  1.91990191419142
 6  15.89989961836184  1.58896379837984  0.17161036633663
 6  17.17154663276328  0.75426065046505  0.22422554865487
 6  18.31749129652966  1.79087627882788 -0.43381352815282
 6  19.74957715881588  1.10291878667867 -0.34635471917192
 6  19.73575337663766  0.08392382268227 -1.43293908510851
 6  20.96138330723072  2.10566198419842 -0.50441553745375
 1 -3.60108074637464  3.35670692169217  1.58620802250225
 1 -9.64950893339334  3.94687377247725  0.05224159025903
 1 -10.11292378397840 -2.54308470777078 -0.70542336823682
 1 -2.52814533133313 -1.42896051385138  1.70106015431543
 1 -1.72677201580158  1.17728820502050  0.80333678707871
 1 -1.07557894159416  0.88015633003300  3.28043875497550
 1 -2.01815998989899  2.39027760416042  2.71054717251725
 1 -2.80870320282028  0.80576846214621  3.63433930303030
 1 -1.67115613591359 -2.07100837383738 -0.54769255605561
 1 -1.18389355835583 -0.60814228712871 -0.96686647744775
 1  0.31454945324532 -0.73865529882988  1.34001986718672
 1  0.14473075327533 -2.41846818061806  1.14281451355135
 1 -3.93362789318932  5.55482331023102  0.15358031573157
 1 -5.26422670327033  6.73743641954195  1.07224413051305
 1 -4.62668369656966  5.70436939793979  2.21366913921392
 1 -8.88780179427943  6.00625573477348 -0.43197957375738
 1 -12.75693524712471 -1.15565643314332 -0.77550197739774
 1 -13.27184339933993  0.00469686948695 -1.23095073147315
 1 -12.99322714581458 -1.10810292569257 -3.29504662176218
 1 -11.92714967876788  0.42362978447845 -3.29336150565057
 1 -10.96698352275228 -1.45656897389739 -3.03550015741574
 1 -9.53885306860686 -4.18546510211021 -1.45876810481048
 1 -8.19782499709971 -5.52367237983798 -1.31479113101310
 1 -9.18631591159116 -5.01399336053605  0.02861747124712
 1 -3.15874545594559 -3.41382510741074 -0.46722502930293
 1  3.39006062146215 -3.41521879567957 -0.79258497559756
 1  2.39035332413241 -2.77855377037704 -2.34172440774077
 1  4.18039536723672 -0.95109785818582 -0.11347774617462
 1  4.63028608560856 -1.42454592709271 -4.23273338833883
 1  5.85395897429743 -1.35819449484949 -3.27725894979498
 1  5.12881670907091 -2.48630124442444 -3.07461164496450
 1  6.06984740664066  0.75897123452345 -2.61986460366037
 1  5.83365847524752  0.89027457525753 -0.90268453185319
 1  7.17104828372837 -1.23502169926993 -0.39513779217922
 1  7.83695909430943 -1.38276706700670 -1.98857833373337
 1  8.94855698709871  0.97817841264126 -1.85954874017402
 1  8.10556905500550  1.40162535073507 -0.15545983758376
 1  10.03126557365736 -1.35662310601060 -0.29243640124012
 1  8.65545779007901 -1.31906072177218  1.28830719151915
 1  10.24956102550255 -1.16366024722472  2.11359325072507
 1  9.05049826142614  0.01541031863186  1.91668297339734
 1  11.00176381418142  1.37899065896590 -0.96514368596860
 1  10.71248099469947  1.52375125072507  0.43959784008401
 1  12.16984452665266 -0.31228366786679  1.20650433373337
 1  12.71481363536354 -0.55091331193119 -0.45649864736474
 1  13.69172404240424  1.97032657765777 -0.21240014461446
 1  13.13387543234323  1.58819307060706  1.61155694509451
 1  15.04563598939894 -0.26813432943294  0.01681349014901
 1  15.37723762366237  1.05539593509351  2.58484125712571
 1  13.93173044654465 -0.49885755765577  2.73271076917692
 1  15.35312234533453 -0.94832841594159  1.88380485818582
 1  15.61256239113911  1.43667366076608 -0.87347732243224
 1  16.11627566016602  2.50173970947095  0.83940226342634
 1  17.31602291739174  0.23954712531253  1.38042822952295
 1  17.16843436763676 -0.22142397319732 -0.38807018441844
 1  17.88583359045905  2.18477502530253 -1.42484547284729
 1  18.65189518561856  2.74029793669367  0.44691136163616
 1  19.90284284548455  0.45117796399640  0.79758310911091
 1  19.56993531153115  0.83725877547755 -2.27163928912891
 1  20.86330062006201 -0.20519232103210 -1.49002313571357
 1  19.10952367936794 -0.68970668906891 -1.15942401710171
 1  21.10887766636663  3.11940151925193  0.02189294289429
 1  21.96108384868487  1.49675625832583 -0.37952066706671
 1  20.88613526642664  2.57673516071607 -1.67283207950795
 1 -0.09165479057906 -3.94758750815082  2.65060340834083
 1 -1.58767844884488 -4.94343161686169  3.76084672127213
 1 -1.42325633893389 -2.98447692479248  3.80623477667767
 8 -11.76676505080508  3.89784458365837 -0.73906572027203
 1 -12.69578008950895  2.20053129322932 -1.42863346834683

