%nproc=3
%Mem=2GB
# td=(NStates=10) iop(3/107=0140000000,3/108=0140000000) CAM-B3LYP/6-31G(d,p) 

TD

0 1
12 -7.21930359965997  0.61154939563956  0.19667771637164
 6 -4.87825670677068 -1.88708081938194  0.45505114001400
 6 -4.83685299159916  2.86392071937194  1.18296175337534
 6 -9.48070265906591  3.05521792119212 -0.22955428842884
 6 -9.57560858845885 -1.75002517751775 -0.86917503250325
 7 -5.12972575417542  0.49442070257026  0.73564108450845
 6 -4.32677028232823 -0.65066568696870  0.72714461726173
 6 -2.97349831103110 -0.37281255335534  1.15909135033503
 6 -3.04416470567057  1.12634376687669  1.67083989038904
 6 -4.39596768346835  1.57096747714771  1.16228248944895
 6 -2.92152994399440  1.19962644994499  3.12632615871587
 6 -1.86393067396740 -0.51735574567457  0.10061938773877
 6 -0.46921517551755 -0.49702793419342  0.52472105500550
 6  0.48900827922792 -0.60471390349035 -0.57939959175918
 8  0.17215776547655 -0.83200460426043 -1.76060534083408
 8  1.76328335333533 -0.36304121092109 -0.18724294439444
 7 -7.08736634513451  2.52930433773377  0.37373253005301
 6 -6.11628875987599  3.36024697859786  0.73925190919092
 6 -6.45501349104911  4.71021165156516  0.81467923242324
 6 -7.78779937533753  4.78999888658866  0.30060696769677
 6 -8.12712326552655  3.53410370167017  0.07892823202320
 6 -5.64700048124812  5.98360945224522  1.25424194939494
 6 -8.67467668006801  5.88225329332933  0.23363338523852
 6 -8.29848904670467  7.14319040334033 -0.00087434973497
 7 -9.16078111381138  0.62210868916892 -0.51860356565657
 6 -9.84608626762676  1.77047773037304 -0.63905903010301
 6 -11.29881462436244  1.50905189558956 -0.91157590719072
 6 -11.31679019971997  0.07627150445044 -1.13452271847185
 6 -10.00897078077808 -0.44388287638764 -0.77659696259626
 6 -12.43468171027103  2.42811509240924 -1.20132066296630
 6 -12.40523056875688 -0.88308937113711 -1.63315849304931
 6 -12.17624395639564 -1.18496238143814 -3.13133123852385
 7 -7.27176342844284 -1.42677203880388 -0.07933105180518
 6 -8.29070429272927 -2.23116905640564 -0.52889069496950
 6 -7.82319998749875 -3.60666484938494 -0.53336176517652
 6 -6.48369389138914 -3.58554286978698 -0.19177166926693
 6 -6.28831360956096 -2.17337349184918  0.08338996039604
 6 -8.64525487018702 -4.76059887878788 -0.94156370337034
 6 -5.31499803750375 -4.27423340864086  0.16263476337634
 8 -5.27829919171917 -5.51671432503250  0.12015805060506
 6 -4.18493190319032 -3.28750168426843  0.48050894289429
 6 -3.64976934113411 -3.70583666826683  1.80648182788279
 8 -3.86535018961896 -3.13596682948295  2.87865158045805
 8 -2.71771311921192 -4.68734688718872  1.71487957595760
 6 -2.09907254575458 -5.16555702500250  2.92540387738774
 6  2.77719149574957 -0.52688194589459 -1.26925230013001
 6  4.03818714111411 -0.36441029042904 -0.60218274697470
 6  5.23274688208821  0.33924724922492 -0.88506840704070
 6  5.22459987658766  1.15181971827183 -2.15289238033803
 6  6.47263372097210  0.27860666756676 -0.05179186538654
 6  7.64674241314131 -0.22506438833883 -0.89227889658966
 6  8.95865494789479 -0.27701743524352 -0.08341093529353
 6  10.26569746274627 -0.64908200650065 -0.86332272667267
 6  10.32388957515752 -2.12672200710071 -1.31814347584758
 6  11.57908902600260 -0.30931182178218 -0.12315211651165
 6  12.88285545454545 -0.47437395329533 -0.83477401720172
 6  13.97746343414341 -0.20365712891289  0.10893810681068
 6  15.45402074607461 -0.17257986968697 -0.49349239953995
 6  15.82315641784179 -1.56193897969797 -1.00962824262426
 6  16.49804305830583  0.34461884798480  0.50440962566257
 6  17.83015872017202  0.61382950875088 -0.17473575347535
 6  18.84838023752375  1.21583343014301  0.84386674837484
 6  20.29731741154115  1.39859560416042  0.30561016461646
 6  20.40490071897189  2.21877752575258 -0.99507532893289
 6  21.18866674077408  1.94657902730273  1.35616231783178
 1 -4.16043630213021  3.60568895059506  1.66044056505651
 1 -10.38305205690569  3.79674725862586 -0.48836313891389
 1 -10.29823908570857 -2.57622767746775 -1.11691523902390
 1 -2.94004269496950 -1.08101776547655  2.03053029162916
 1 -2.42643228122812  1.84178266686669  1.01209557605761
 1 -2.07951167446745  1.11532702170217  3.67809802320232
 1 -3.31100588678868  2.28721817841784  3.42284685218522
 1 -3.72255323652365  0.52818718641864  3.73137702220222
 1 -2.15184771167117 -1.49578549894989 -0.53480846684669
 1 -2.35533973617362  0.25996808810881 -0.51926702830283
 1 -0.33061015501550  0.49601752525253  1.04228648054805
 1 -0.10756671037104 -1.06056903230323  1.24522739863986
 1 -5.10209237693769  6.51177635273527  0.48616039823982
 1 -6.37314198449845  6.69910970977098  1.98063275247525
 1 -4.73514674347435  5.72189736113611  2.03977765646565
 1 -9.72951044994499  5.53501643774378  0.45716356085609
 1 -9.04841548194819  7.91992058155816 -0.31784119081908
 1 -7.18054309090909  7.30911148034804 -0.19470394099410
 1 -12.06989240204020  3.02673997929793 -2.16006230463046
 1 -13.19376458995900  1.72611824992499 -1.50186371007101
 1 -12.84427138853886  3.07381046644664 -0.38230972897290
 1 -12.26503903200320 -1.78349074727473 -0.82007221512151
 1 -13.43558956255626 -0.23953776677668 -1.40328768576858
 1 -12.87555802200220 -1.87768900810081 -3.56862986068607
 1 -12.07456763076308 -0.22000072597260 -3.81540911591159
 1 -11.20002334993499 -1.63436638063806 -3.23814292979298
 1 -9.32787368326833 -4.62355520382038 -1.88113569496950
 1 -8.20498419941994 -5.65844595279528 -1.11233546164616
 1 -9.21360352615261 -4.79236602360236 -0.11944020022002
 1 -3.49793992599260 -3.47309889438944 -0.29513616661666
 1 -1.09088017801780 -4.51431980928093  3.38046473347335
 1 -2.71150633803380 -5.26962760516052  3.84043126522652
 1 -1.72576400290029 -6.29116329342934  2.70125682858286
 1  2.62897756885689 -1.63569325922592 -1.69674375067507
 1  2.42741444164416  0.21290420882088 -2.12662468226823
 1  3.98509773407341 -1.03228123432343  0.37306968316832
 1  4.16629756605660  1.36781787808781 -2.52181552385239
 1  5.78822212061206  2.11501589178918 -2.11691604620462
 1  5.91597692049205  0.64803513371337 -3.08223952325233
 1  6.90394341764176  1.35269149684968  0.13086058375838
 1  6.40427377537754 -0.28960220912091  0.81811281838184
 1  7.45086882898290 -1.18439951165117 -1.52036616531653
 1  7.95337686868687  0.41694857135714 -1.90538068496850
 1  9.24956105330533  0.88587120362036  0.26708067056706
 1  8.59844766756676 -0.95418377377738  0.71056567516752
 1  10.26577828932893  0.05367013331333 -1.87914174477448
 1  9.41342783918392 -2.34112115641564 -1.83100806200620
 1  11.11793487818782 -2.37772428502850 -1.98611479747975
 1  10.54298177177718 -2.85183680628063 -0.47102919361936
 1  11.66012077427743  0.69402380988099  0.14654661806181
 1  11.57359776947695 -1.07555989408941  0.81626909990999
 1  12.89763549924993 -1.52361922332233 -0.99664799969997
 1  13.00811971797180  0.14088356735674 -1.72579094289429
 1  13.80805230843084  0.91282453795380  0.51539820032003
 1  14.07081317161716 -0.82374481178118  0.95382055175518
 1  15.59043143524352  0.47540740114011 -1.39904956445645
 1  15.93374537553755 -2.44191091699170 -0.38007560516052
 1  14.85835336713671 -1.99292748634863 -1.53057077747775
 1  16.81674973357336 -1.65116904550455 -1.61149325812581
 1  15.98604381408141  1.25962503520352  0.87572099309931
 1  16.52984468646865 -0.29894629032903  1.31143407510751
 1  18.30788998089809 -0.32487945174517 -0.59921592919292
 1  17.74790487168717  1.27475873437344 -1.03566705060506
 1  18.57526620942094  2.13120502010201  1.16470157105711
 1  18.88916519391939  0.55892950425043  1.80255660726073
 1  20.69690975767577  0.31218765456546 -0.11463371297130
 1  19.97415424872487  3.27331631653165 -0.96521679117912
 1  21.36752286618662  2.11200707860786 -1.51811306530653
 1  19.65270610381038  1.78527993029303 -1.75247567086709
 1  21.27585760106011  1.04655395919592  2.03346278787879
 1  22.18363300380038  2.36257478867887  1.03028729492949
 1  20.69821235383538  2.98543221942194  1.82614854605461

