%nproc=3
%Mem=2GB
# td=(NStates=10) iop(3/107=0140000000,3/108=0140000000) CAM-B3LYP/6-31G(d,p) 

TD

0 1
12 -7.16867853715372  0.56627486818682  0.05837388598860
 6 -4.88935781688169 -1.88024013531353  0.41751738663866
 6 -4.73693299959996  2.77278160546055  1.16699015621562
 6 -9.39488407720772  3.12257465686569 -0.40557189018902
 6 -9.53246427402740 -1.78806898189819 -0.94233234823482
 7 -5.05322810441044  0.36776803730373  0.82715023542354
 6 -4.32974057935794 -0.74719533993399  0.77652955575558
 6 -2.98990995219522 -0.43748902100210  1.24830027122712
 6 -2.98091838103810  1.07521865436544  1.61588439483948
 6 -4.37212529922992  1.45600598099810  1.15208146934693
 6 -2.96309410041004  1.14903139043904  3.18879240534053
 6 -1.93348762966297 -0.69411342144214  0.08466779257926
 6 -0.53029128312831 -0.42951118251825  0.47103568646865
 6  0.41888126652665 -0.61820525262526 -0.57625927772777
 8  0.21382193189319 -1.02647405120512 -1.75824510481048
 8  1.70789781478148 -0.42380728752875 -0.19803402350235
 7 -7.00104771327133  2.61057246454645  0.34825998279828
 6 -6.00799793079308  3.28263921782178  0.85403338733873
 6 -6.35495348504851  4.72716334673467  0.85825358985899
 6 -7.68589918531853  4.81607149384939  0.42926983398340
 6 -8.12834338753875  3.50946123742374  0.07876821602160
 6 -5.47733351455145  5.83207429872987  1.27739426462646
 6 -8.60488970137014  5.95285035303530  0.25921594349435
 6 -8.30111930973097  7.27766385068507  0.16053179087909
 7 -9.09432446814681  0.70706718501850 -0.48375008030803
 6 -9.84422608160816  1.73648433103310 -0.57814293849385
 6 -11.25348009090909  1.50229121952195 -1.08794354395440
 6 -11.25736425712571  0.10971484878488 -1.15417468366837
 6 -9.93965384908491 -0.41455994409441 -0.83700300320032
 6 -12.24041228332833  2.47268954985499 -1.40717124802480
 6 -12.29892993869387 -0.70445150735074 -1.73569874707471
 6 -12.06418275027503 -0.92502638783878 -3.19990809620962
 7 -7.22515876797680 -1.45601496309631 -0.11008412711271
 6 -8.32694791709171 -2.28683462296230 -0.52329013491349
 6 -7.88562623012301 -3.62656683958396 -0.45133356235624
 6 -6.53156867886789 -3.58342265776578  0.00833834173417
 6 -6.18990376857686 -2.16731288578858  0.06106772817282
 6 -8.78123846854685 -4.76130894979498 -0.63151269826983
 6 -5.32096863456346 -4.35991197649765  0.23336183608361
 8 -5.11278264006401 -5.59618227182718  0.17415345014501
 6 -4.18011142114211 -3.35757869196920  0.45263615561556
 6 -3.52366673087309 -3.64111019561956  1.84333551325133
 8 -3.69679333393339 -3.01825505830583  2.86215993129313
 8 -2.73748509640964 -4.64171232373237  1.66476456445645
 6 -2.18982162066207 -5.20805127442744  2.81598293529353
 6  2.75495927252725 -0.64870412811281 -1.21476685158516
 6  4.08828215061506 -0.41841569096910 -0.52942547124712
 6  5.11979558695870  0.30275359985999 -0.94540444064406
 6  5.14949236583658  1.07350188648865 -2.26463355445545
 6  6.40956741434143  0.32956176307631 -0.23536022222222
 6  7.58160589948995 -0.20511239313931 -1.00939060776078
 6  8.86434551695170 -0.10371010451045 -0.01885447964796
 6  10.05925681868187 -0.53881097939794 -0.80574696909691
 6  10.02956014221422 -1.95049438433843 -1.28887054855486
 6  11.34780589768977 -0.22854374497450  0.04893509220922
 6  12.74161133013301 -0.40619713561356 -0.67980852065206
 6  14.01938762656266 -0.10666742994299  0.15706291929193
 6  15.38479382338234 -0.10037264896490 -0.51861491179118
 6  15.63534763696370 -1.55091787758776 -1.05485276507651
 6  16.41200445444544  0.46314070017002  0.35792497719772
 6  17.80033573787379  0.41355948174818 -0.11803008290829
 6  18.87856325582558  1.36616846364636  0.79051141284128
 6  20.27302498229823  1.33933967856786  0.23829343294329
 6  20.25904613351335  2.18404405240524 -0.95162098349835
 6  21.19237711181118  1.95792016141614  1.28312501410141
 1 -4.12157241574157  3.46982536423642  1.55915043604360
 1 -10.12833658535854  3.84662224612461 -0.59028333093309
 1 -10.38571783358336 -2.45360541524152 -1.14728827632763
 1 -2.66057474817482 -1.19841950565056  2.07530476907691
 1 -2.10309994799480  1.65516400500050  1.27448181468147
 1 -2.15978970227023  0.74201969096910  3.74740495389539
 1 -3.10169495569557  2.15682513911391  3.34089865736574
 1 -3.74099508070807  0.62318668636864  3.60219410391039
 1 -2.10860338723872 -1.64391031143114 -0.64758974497450
 1 -2.10958516071607  0.12218430973097 -0.61181628322832
 1 -0.39061615561556  0.50900882438244  0.93709596149615
 1 -0.50624657835784 -1.09002197759776  1.37466034193419
 1 -5.10183235093509  6.13998917401740  0.32828461066107
 1 -6.05322999329933  6.63896369516952  1.97544223342334
 1 -4.80632386118612  5.27067223862386  1.95297897659766
 1 -9.66700419931993  5.73000593669367  0.25130297479748
 1 -8.94540518091809  8.08172676217622  0.14172476577658
 1 -7.14524956155616  7.57805837503751  0.15030055945595
 1 -11.66843225602560  3.15547285258526 -1.95349164756476
 1 -13.05491070457046  2.13331896999700 -1.89146266996700
 1 -12.46823378477848  2.95368845424542 -0.40254175217522
 1 -12.26543907200720 -1.67018941714171 -1.12539274717472
 1 -13.32458846244625 -0.07497131013101 -1.41392874987499
 1 -12.89343981018102 -1.60434167336734 -3.59412240994099
 1 -12.23459363336334  0.07695896999700 -3.69984755975598
 1 -11.21675502310231 -1.41749469346935 -3.47227634313431
 1 -9.25227612351235 -4.76942979127913 -1.67381496289629
 1 -8.21578527952795 -5.61152126032603 -0.64364859295930
 1 -9.57780994679468 -4.69476626362636  0.10591233503350
 1 -3.34017414941494 -3.26749833433343 -0.30714736773677
 1 -1.63560465046505 -4.57752612991299  3.48386507350735
 1 -2.99939512691269 -5.64596523892389  3.35023224532453
 1 -1.37385881238124 -6.02677685478548  2.58971567446745
 1  2.95154982608261 -1.68604829472947 -1.40961503780378
 1  2.77516921712171 -0.03427050865087 -2.01741376117612
 1  4.11724094839484 -1.02517052325232  0.40250262646265
 1  4.16323726002600  1.35241633793379 -2.84025736803680
 1  5.52815611401140  2.04381877207721 -2.00202455705571
 1  5.73368869166917  0.36649697989799 -2.93157445674567
 1  6.43836685998600  1.36547277497750  0.00522802050205
 1  6.41905525352535 -0.17331057995800  0.78381938903890
 1  7.68390213231323 -1.19792086378638 -1.23989811851185
 1  7.80498202920292  0.40237711421142 -1.95363551045105
 1  9.00114621182118  0.90733334983498  0.32017598009801
 1  8.64188201100110 -0.69166752215222  0.91104572317232
 1  10.18482019351935  0.13997876417642 -1.56989081968197
 1  9.28039453585359 -2.39405644994499 -1.90068502970297
 1  11.04178726342634 -2.20329684228423 -1.89098528452845
 1  10.02757023062306 -2.74608623122312 -0.59398148884888
 1  11.10716547874787  0.85724013151315  0.35027699109911
 1  11.56152656235624 -0.83540587868787  1.02638011101110
 1  12.97403313901390 -1.29721658305831 -1.10007834273427
 1  12.75701460746075  0.26810628962896 -1.48247661146115
 1  13.84722622582258  0.93717697319732  0.58268492899290
 1  14.17654374467447 -0.76030846814681  1.02273744344434
 1  15.27980037213721  0.59105896629663 -1.49008866836684
 1  15.93096509750975 -2.30092681858186 -0.16379397699770
 1  14.94614214601460 -2.06982517611761 -1.72816053645365
 1  16.63937199579958 -1.44623855245525 -1.61277338613861
 1  16.13652886258626  1.45819489218922  0.67198061906191
 1  16.21572327432743 -0.29304570027003  1.24233716541654
 1  18.10270946284628 -0.59753671747175 -0.00583659125913
 1  17.90934101530153  0.66322758125813 -1.26197968186819
 1  18.34366304910491  2.31449334893489  0.99491459235924
 1  18.49511578897890  0.81832544384438  1.83163951555155
 1  20.67576764346434  0.30639707550755  0.03378112851285
 1  19.80176701000100  3.09419840474047 -0.76475674517452
 1  21.25730184408441  2.28794467236724 -1.50760201420142
 1  19.58520935413541  1.76898830113011 -1.90682110541054
 1  21.27970798609861  1.35912521632163  2.11655109670967
 1  22.10434507500750  2.13966249744974  0.68211247744774
 1  20.82657519011901  2.88810248644864  1.74324025522552

