%nproc=3
%Mem=2GB
# td=(NStates=10) iop(3/107=0140000000,3/108=0140000000) CAM-B3LYP/6-31G(d,p) 

TD

0 1
12 -7.18463013231323  0.64889313001300  0.03333138173817
 6 -4.83650253135314 -1.90566267756776  0.44524015891589
 6 -4.89601890819082  2.89663399069907  1.21468492569257
 6 -9.48257284608461  3.11862426182618 -0.38844017701770
 6 -9.41897292489249 -1.66894706970697 -1.01309942494249
 7 -5.12984576617662  0.46725798629863  0.72024954535454
 6 -4.34881248654865 -0.63386400680068  0.79756165896590
 6 -2.99829079027903 -0.37571284338434  1.19957539873987
 6 -3.03281357055706  1.12210334283428  1.61115392179218
 6 -4.44935302200220  1.48891927232723  1.19525578677868
 6 -2.89617740874087  1.37548403570357  3.14367789388939
 6 -1.88971325222522 -0.56721073117312  0.16857618341834
 6 -0.44823307730773 -0.50390862226223  0.63015159805981
 6  0.56175555395540 -0.63136656875688 -0.62738439023902
 8  0.22264281398140 -1.10115151895190 -1.70003928422842
 8  1.76124314931493 -0.61446635343534 -0.11408562866287
 7 -7.10871848034803  2.62508391569157  0.22315747254725
 6 -6.15643277427743  3.31160211411141  0.77191517551755
 6 -6.54074206390639  4.74768539893989  0.82937070157016
 6 -7.78802939833983  4.82205209190919  0.34029093609361
 6 -8.12102265546554  3.54339463076308  0.07249758895890
 6 -5.71953773497350  5.86493758505851  1.40835736093609
 6 -8.69209842224222  5.95923099109911  0.30446046794679
 6 -8.29216841464146  7.31530761506151  0.24033977167717
 7 -9.14223925962596  0.67260373867387 -0.47211891719172
 6 -9.87383904290429  1.78347903050305 -0.61290641484148
 6 -11.16976171907191  1.36922791319132 -1.08456320592059
 6 -11.22139065976598  0.04053793109311 -1.31885115131513
 6 -9.89623950765077 -0.44792328042804 -0.85803510641064
 6 -12.33430167226723  2.41696397729773 -1.24243477437744
 6 -12.40736078177818 -0.71247230943094 -1.70148532573257
 6 -12.26336266826683 -1.06620050525053 -3.23123122852285
 7 -7.18082433453345 -1.31849121072107 -0.17616073477348
 6 -8.24279950225023 -2.17959389888989 -0.54580238613861
 6 -7.81198886638664 -3.53068725162516 -0.54181261026103
 6 -6.41680720272027 -3.43589790529053 -0.21889438153815
 6 -6.11974675287529 -2.15690184468447  0.14518614001400
 6 -8.64300464516452 -4.85292811171117 -0.79296884388439
 6 -5.26382291999200 -4.26610259555956  0.02874137403740
 8 -5.19036039783978 -5.48837149074908  0.05003103790379
 6 -4.15178858885889 -3.30655358945895  0.52619351135114
 6 -3.54659902410241 -3.76279236383638  1.83442462216222
 8 -3.77267092169217 -3.28356158895890  2.94070778607861
 8 -2.67878922682268 -4.75419357185719  1.64031211921192
 6 -2.06580921942194 -5.14990545984598  2.92242357935794
 6  2.84714849144914 -0.89207846554655 -1.01358673357336
 6  4.07820114251425 -0.59287313671367 -0.36173870257026
 6  5.07901150855086  0.25384870937094 -0.85626552675268
 6  4.92653006960696  1.03354789108911 -2.10668775987599
 6  6.33833029062906  0.40389919681968 -0.15513219941994
 6  7.55658339723972 -0.23761564346435 -0.82985265396540
 6  8.86281536393639 -0.04104383788379 -0.05628822302230
 6  10.23286417941794 -0.50130722902290 -0.77683407780778
 6  10.12322950915092 -1.98639797469747 -1.27309897139714
 6  11.48258937603760 -0.27004789538954  0.06034623332333
 6  12.76059322832283 -0.35576209210921 -0.70907144694469
 6  14.01529721752175  0.03944718151815  0.14264147714771
 6  15.42130747474747 -0.15919853155316 -0.53697674797480
 6  15.72147624982498 -1.67729051485149 -0.88410569036904
 6  16.43831708570857  0.46753113921392  0.25114429912991
 6  17.85900160446045  0.35708383418342 -0.21802008190819
 6  18.89379477897790  1.12898474527453  0.63700606230623
 6  20.32798047784778  1.36606235083508  0.17668727232723
 6  20.41619184808481  2.16235188318832 -1.18440426182618
 6  21.11309918401840  2.06113048244824  1.35204190579058
 1 -4.27625788428843  3.47566594829483  1.63715823682368
 1 -9.92207595929593  4.12690027392739 -0.72131643424342
 1 -10.09376863866387 -2.50221027572757 -1.28414196169617
 1 -2.50009870057006 -1.02317198089809  1.99220645924592
 1 -2.27453709170917  1.57806629522952  0.98619298579858
 1 -1.97056077937794  1.07775326432643  3.65003521692169
 1 -3.17341212741274  2.35725518211821  3.40339490699070
 1 -3.68375935713571  0.75663003070307  3.71211509600960
 1 -2.00178270517052 -1.57847376777678 -0.29633461946195
 1 -2.14540874307431  0.18520061136114 -0.66843194479448
 1 -0.36229332333233  0.49422734623462  0.91461371327133
 1 -0.05629158285829 -1.11212418781878  1.31951482738274
 1 -5.05183735143514  6.36184135923592  0.73745552775278
 1 -6.35213988428843  6.61779157795779  1.82579726892689
 1 -5.19419264806481  5.49549472087209  2.31029470817082
 1 -9.60330782968297  5.76709964606461  0.35402324682468
 1 -8.91489212961296  8.25017360686069  0.51377197049705
 1 -7.28079311591159  7.56353692289229  0.20950648004800
 1 -12.17225263806381  3.27368467376738 -2.05669196759676
 1 -13.40905611911191  1.95793143124312 -1.42123564726473
 1 -12.50152711411141  2.96908999439944 -0.24724622262226
 1 -12.34602713081308 -1.87049944814481 -1.19449965786579
 1 -13.52774877847785 -0.11006481948195 -1.44396175317532
 1 -12.91324179037904 -1.81255249444944 -3.44747774547455
 1 -12.39700987498750 -0.01892061796180 -3.75498307330733
 1 -11.34498784638464 -1.30249319331933 -3.55193430893089
 1 -9.17590848674867 -4.80105295359536 -1.74984256565657
 1 -7.85844954595460 -5.54538464666467 -0.60343457155716
 1 -9.41233339913991 -5.18939572657266 -0.07284554075408
 1 -3.27651778377838 -3.56804838933893  0.03732707970797
 1 -1.13401449144915 -4.32969134643464  2.96609329632963
 1 -2.66692187958796 -5.11899254165417  3.89706692879288
 1 -1.77937936443644 -6.08964314141414  2.83558026092609
 1  2.65142981408141 -1.98449813971397 -1.09766384268427
 1  2.65764746494649 -0.51766884848485 -2.16557857765777
 1  4.24604382868287 -1.13190119631963  0.49930230643064
 1  3.89568050435043  0.87894899119912 -2.76229957225723
 1  5.29992329072907  1.98251264146415 -1.92997735233523
 1  5.70786610941094  0.54981531173117 -2.69618091739174
 1  6.66649967326733  1.51474770247025  0.11964946264626
 1  6.18379172717272 -0.19456270517052  0.93366437353735
 1  7.56850059215922 -1.40579165086509 -1.18508263696370
 1  7.74601613261326  0.41610848734874 -1.71274142104210
 1  9.20403650085008  1.08657127362736  0.25515947844784
 1  8.85891371417142 -0.78800715611561  0.91349596819682
 1  10.25245695719572  0.27029179547955 -1.56690052065206
 1  9.54268076447645 -2.04588163246325 -2.03817877907791
 1  11.23741682638264 -2.11246775937594 -1.65284147014701
 1  9.70627810141014 -2.68711033363336 -0.42810490119012
 1  11.31860662286229  0.80712512001200  0.41664362776278
 1  11.54920533023302 -0.88902124022402  0.93772124512451
 1  13.03241897759776 -1.30555741714171 -1.09272760766077
 1  12.79282818881888  0.28809828882888 -1.64878324212421
 1  13.95516701990199  0.89756301180118  0.64880154065407
 1  13.93703979427943 -0.74219665696570  1.09588475817582
 1  15.41895428752875  0.38535839623962 -1.47282694219422
 1  15.75274727572757 -2.35923264916492 -0.05207280488049
 1  15.03889142094209 -2.37144533813381 -1.52626034643464
 1  16.75366342494249 -1.59628355695570 -1.41265337413741
 1  16.29533474317432  1.54910398309831  0.38003142414241
 1  16.40791249324933 -0.13417981368137  1.19202213391339
 1  18.10537972987299 -0.46566353015302 -0.31044705230523
 1  17.92248232943295  0.94429568806881 -1.20853433733373
 1  18.54017270007001  2.20958285788579  0.69258435933593
 1  18.95481175857585  0.84742835413541  1.58982533413341
 1  20.76169623632363  0.31108754455446 -0.06520877047705
 1  20.03666049934994  3.22063104800480 -1.00972124162416
 1  21.44005011891189  2.25385126302630 -1.54705595959596
 1  19.94830566376638  1.46250765306531 -1.99823024632463
 1  21.14699471477148  1.34018332213221  2.14857429902990
 1  22.33625826632663  2.17168569976998  1.06926119231923
 1  20.67649018161816  3.10571424762476  1.61692762396240

