%nproc=3
%Mem=2GB
# td=(NStates=10) iop(3/107=0140000000,3/108=0140000000) CAM-B3LYP/6-31G(d,p) 

TD

0 1
12 -7.20370203950395  0.58532677337734  0.27351540014001
 6 -4.83312219331933 -2.00910302160216  0.45319095399540
 6 -4.83170247654765  2.72922725002500  1.30662411961196
 6 -9.46275086388639  3.19250164956496 -0.28287962096210
 6 -9.46673770137014 -1.66953712871287 -0.95040315531553
 7 -5.07257003860386  0.41748300880088  0.69681720212021
 6 -4.36479408470847 -0.75214583498350  0.71534343714371
 6 -2.95718667986799 -0.45558083018302  1.19078451965197
 6 -3.00058034723472  1.07516864936494  1.65338814521452
 6 -4.39361744844484  1.49597997839784  1.19976623782378
 6 -2.92191998299830  1.23750023732373  3.20336386248625
 6 -1.90058433933393 -0.63037704780478  0.10968029382938
 6 -0.47967622162216 -0.35227345874587  0.47047563046305
 6  0.51943132153215 -0.67474090619062 -0.60858251005100
 8  0.22720327002700 -1.07364876867687 -1.76884616491649
 8  1.82357938293829 -0.42881778857886 -0.22210643074307
 7 -7.15672328082808  2.61770317761776  0.32130728752875
 6 -6.00025715671567  3.33303425732573  0.72964094809481
 6 -6.38449643934393  4.68169880028003  0.84312207670767
 6 -7.72157275267527  4.89788967566757  0.45197210421042
 6 -8.17023757695769  3.50186047734773  0.10755109430943
 6 -5.41051683288329  5.86333742504250  1.23770029522952
 6 -8.57386659905991  6.03961902990299  0.43259328122812
 6 -8.29901909970997  7.30256634093409  0.15265100280028
 7 -9.08703373907391  0.70880735903590 -0.39700140544054
 6 -9.96110776977698  1.85203588618862 -0.61064618881888
 6 -11.25397013991399  1.47934892529253 -1.08571332093209
 6 -11.21881040174017  0.12010588788879 -1.22061132733273
 6 -9.92290217391739 -0.35998448654865 -0.82302160506051
 6 -12.34949319141914  2.46344862576258 -1.34979551045105
 6 -12.30725077077708 -0.78826988918892 -1.73239841704170
 6 -12.21512784478448 -1.04336822202220 -3.31173927932793
 7 -7.19180543264326 -1.36238560016002 -0.14029714841484
 6 -8.21105632793279 -2.15211115061506 -0.56832463836384
 6 -7.93372103960396 -3.52366654955496 -0.51864029302930
 6 -6.55592111411141 -3.65672998849885 -0.07308980108011
 6 -6.11932671087109 -2.21019717421742  0.05366698809881
 6 -8.73591393609361 -4.84711753065307 -0.82390193719372
 6 -5.40883742144214 -4.41394738003800  0.23190169006901
 8 -5.20449181098110 -5.61961461506151  0.16949298409841
 6 -4.17429083908391 -3.33115604970497  0.56819771177118
 6 -3.53633799799980 -3.66348243284328  1.97419859955996
 8 -3.75127878247825 -3.18185141794179  3.02330604590459
 8 -2.81253260116012 -4.74762291479148  1.70725881388139
 6 -2.16589922842284 -5.25694616391639  2.93686502350235
 6  2.78140191679168 -0.81889114681468 -1.22566794169417
 6  4.19195251765177 -0.60681453085309 -0.63922645134513
 6  5.00918452585259  0.32995632013201 -1.05991589178918
 6  4.93955137173717  1.27892242854285 -2.24513160426043
 6  6.45295175277528  0.46005481238124 -0.45960264646465
 6  7.68302604150415 -0.19180106200620 -1.16676634533453
 6  8.95710479287929 -0.01581131463146 -0.36079867406741
 6  10.26237713071307 -0.56398349664966 -1.01860825522552
 6  10.12041922812281 -2.13549288418842 -1.19983164466447
 6  11.44037515461546 -0.27403829442944 -0.15960576187619
 6  12.77609477847785 -0.43980049594960 -0.73862440224022
 6  13.96133182098210 -0.05137190039004  0.23205041804180
 6  15.37290263426343 -0.25881849354935 -0.52691574187419
 6  15.78314241644165 -1.63286607240724 -0.74772205200520
 6  16.39548280228023  0.37037142324232  0.38591777647765
 6  17.82421812611261  0.60880900670067 -0.12480075997600
 6  18.71447684718472  1.33398524532453  0.79399176087609
 6  20.25373305310531  1.40532627722772  0.43375297889789
 6  20.43055328422842  2.08386403440344 -0.97693351475148
 6  21.04942281638164  2.11856622602260  1.46614331593159
 1 -4.32078233673367  3.50614899659966  1.85281980298030
 1 -10.18813256495650  4.08982656655666 -0.53393769636964
 1 -10.19315857765777 -2.55456551125112 -1.27157070457046
 1 -2.70958964966497 -1.21655131883188  2.10575781438144
 1 -2.09090872887289  1.53651213981398  1.03872823932393
 1 -1.85418914221422  1.13316880588059  3.58059827322732
 1 -3.19666445264526  2.18363782038204  3.50874544204420
 1 -3.54030501170117  0.50771513921392  3.70279416391639
 1 -1.94919744664466 -1.77511343174317 -0.18456344234423
 1 -2.15838004020402  0.02406449774977 -0.63185828742874
 1 -0.27336443044304  0.68765668916892  0.93550580248025
 1 -0.21042699639964 -1.05768874427443  1.45612848874887
 1 -4.85316748444844  5.99470464556456  0.47415919811981
 1 -5.99784445474547  6.71133093189319  1.56648133733373
 1 -4.91692492129213  5.80885605700570  2.09018269696970
 1 -9.58469596849685  5.98869180528053  0.82683052755275
 1 -8.89279992039204  8.06986557605761 -0.05733514021402
 1 -7.40175521212121  7.51424199339934 -0.17492196279628
 1 -12.19563497629763  3.14842214751475 -2.13839013741374
 1 -13.34918013151315  2.03181881998200 -1.54985850955095
 1 -12.67491445284529  2.98394147954796 -0.37265876387639
 1 -12.15206773487349 -1.68622102030203 -1.24002421032103
 1 -13.28077408100810 -0.47674148714872 -1.45264262126213
 1 -12.88907937413741 -1.94085532473247 -3.59148214591459
 1 -12.45308548254826 -0.01709043494349 -3.86778435343534
 1 -10.96532988058806 -1.00994393839384 -3.41339045454545
 1 -9.10290118601860 -4.64971782008201 -1.75072265366537
 1 -8.36197989898990 -5.92305241344134 -0.98292252035204
 1 -9.47196936273627 -4.77497428442844 -0.01304956115612
 1 -3.38778891089109 -3.40082166666667 -0.24807146014601
 1 -1.39582067206721 -4.41215959325933  3.59379606660666
 1 -2.73547873527353 -5.52914355675568  3.84902212431243
 1 -1.58272969946995 -6.10531470857086  2.58690539343934
 1  2.62142681378138 -1.90960064996500 -1.39288336463646
 1  2.78701040124012 -0.30328741034103 -2.14248626842684
 1  4.33058228252825 -1.20655866206621  0.26118849504951
 1  4.05544648094809  1.59071016731673 -2.85481882418242
 1  5.37519081748175  2.28667305750575 -2.11844619921992
 1  5.54514983778378  0.91879220942094 -3.00727202650265
 1  6.62856587988799  1.68850507820782 -0.30948345064506
 1  6.51265461346135  0.20725747684768  0.66579758685869
 1  7.61467520962096 -1.33472454415442 -1.42113624232423
 1  7.89418094909491  0.46977385388539 -2.13522366926693
 1  9.27646374357436  1.04439705620562 -0.28145418291829
 1  9.02453027582758 -0.44918327372737  0.60324494309431
 1  10.41430314181418 -0.36719195289529 -2.01589542014201
 1  9.43743023942394 -2.34171121542154 -2.03996895809581
 1  11.17019010371037 -2.46454296689669 -1.48570475647565
 1  9.96079355295529 -2.97980960356036 -0.36124821552155
 1  11.53559832203220  0.62639704720472  0.16218818221822
 1  11.48756916661666 -0.85996833493349  0.70112758575858
 1  12.64735047074707 -1.45010187158716 -0.93235157005701
 1  12.74395330133013  0.12020149914992 -1.63370173397340
 1  13.82607411061106  0.97611086658666  0.64481114161416
 1  13.96350244054405 -0.70772320962096  1.07182235193519
 1  15.37134952705271  0.20726058645865 -1.50947060656066
 1  15.87944994599460 -2.28916564246425  0.10767316971697
 1  15.03801133293329 -2.07432562616262 -1.38941666206621
 1  16.64931298989899 -1.83813774237424 -1.35833794259426
 1  15.96855206490649  1.40737981068107  0.53607702870287
 1  16.27511921392139 -0.17234363006301  1.27796072777278
 1  18.13365255715572 -0.33365032883288 -0.42063807140714
 1  17.81362144334433  1.18284954345435 -1.10521400530053
 1  18.35310399319932  2.46568846844684  0.80045514641464
 1  18.51267754515451  0.68027163846385  1.86825317691769
 1  20.68729879657966  0.27344378017802  0.31276902730273
 1  20.09661649494950  3.22520150505051 -1.17618788828883
 1  21.39938605250525  2.19082496039604 -1.61048230223022
 1  19.87007784098410  1.65410681298130 -1.66312673597360
 1  21.15743575887589  1.43237254105411  2.46370581218122
 1  22.19402404290429  2.31602013321332  1.17894216041604
 1  20.64223675627563  3.15372904910491  1.54161009220922

