%nproc=3
%Mem=2GB
# td=(NStates=10) iop(3/107=0140000000,3/108=0140000000) CAM-B3LYP/6-31G(d,p) 

TD

0 1
12 -7.14782645194519  0.57578581928193  0.07921597019702
 6 -4.95057393849385 -1.87601971327133  0.45511114601460
 6 -4.89279858615862  2.76531085838584  1.12720617781778
 6 -9.44362895169517  3.05939833923392 -0.35246657965797
 6 -9.56008703630363 -1.75380555555556 -0.87097521252125
 7 -5.05862864446445  0.43656491699170  0.58066558695870
 6 -4.39053665896590 -0.70545116551655  0.74590649344935
 6 -2.87350831203120 -0.37109238133813  1.24420986218622
 6 -3.07372766196620  1.08899003150315  1.59472227862786
 6 -4.45409349604960  1.49434981538154  1.09916617781778
 6 -2.87982577357736  1.32020850815082  3.02487601370137
 6 -1.91327560846085 -0.57958196829683  0.05589491529153
 6 -0.40423867786779 -0.43859209060906  0.45403398629863
 6  0.54459383778378 -0.75092852495250 -0.65842749454945
 8  0.25856640634063 -1.09459086288629 -1.77618689898990
 8  1.84110113511351 -0.46056096289629 -0.22367658775878
 7 -7.13183079157916  2.62095350265026  0.52127728452845
 6 -6.01737886888689  3.36651760566057  0.82408039203920
 6 -6.44514250395039  4.77386801720172  0.76352411691169
 6 -7.79114971037104  4.79456934363436  0.42397930493049
 6 -8.22545309850985  3.41698198949895  0.17040737993799
 6 -5.50752653385338  5.80393148444844  1.30388691389139
 6 -8.58418763116312  5.96761182918292  0.20535055695570
 6 -8.14027322512251  7.23681976627663  0.09688542624262
 7 -9.18893392909291  0.70120659895990 -0.41642334763476
 6 -9.93361502050205  1.79983066566657 -0.59217434163416
 6 -11.30117486038604  1.49925091549155 -0.92520727032703
 6 -11.37175569626963  0.08538241554155 -1.16860612681268
 6 -9.99522940664066 -0.36317480558056 -0.94106340924092
 6 -12.38696693879388  2.41562384328433 -1.27256778767877
 6 -12.47326737243724 -0.70895195739574 -1.52774795199520
 6 -12.38221455345535 -1.10801468666867 -2.98339644504450
 7 -7.19668592069207 -1.36126548814882 -0.21726484518452
 6 -8.33880910321032 -2.24529046854685 -0.47544535043504
 6 -7.85117278477848 -3.67592177507751 -0.48717714671467
 6 -6.60421594359436 -3.54806912241224 -0.10823331543154
 6 -6.30029480768077 -2.20883703820382  0.10037165856586
 6 -8.60804114881488 -4.95665848474848 -0.77410695769577
 6 -5.32474901260126 -4.28422440774077  0.19930843074307
 8 -5.17642900470047 -5.50279293289329  0.14394042884288
 6 -4.16106951695170 -3.23125605970597  0.39899079107911
 6 -3.60731509570957 -3.59846593119312  1.79949112881288
 8 -3.71971562616262 -3.11424465726573  2.80910462576258
 8 -2.77905925382538 -4.74326247874787  1.56551463946395
 6 -2.19695233373337 -5.23452392169217  2.84757609460946
 6  2.82414619121912 -0.72640189788979 -1.19823519841984
 6  4.18727204960496 -0.50398424782478 -0.53557608630863
 6  5.12592620002000  0.32510583508351 -0.78690859105911
 6  5.04893230983098  1.22892742904290 -1.99374646574657
 6  6.50948740634063  0.31810061696170 -0.10406709290929
 6  7.64423216211621 -0.15641752365237 -0.98229789848985
 6  8.97886696909691 -0.00230996449645 -0.17153974817482
 6  10.22631352435243 -0.46911400970097 -0.92681907630763
 6  10.10180736693669 -1.98054738963896 -1.37146880838084
 6  11.44345546264626 -0.24637552815282 -0.01791159245925
 6  12.82540970997100 -0.57027354325433 -0.68899943974397
 6  13.99271495929593 -0.09277604080408  0.19439665266527
 6  15.41830717471747 -0.22590520222022 -0.49348239853985
 6  15.73622772497250 -1.63462624842484 -0.85445272507251
 6  16.42945619961996  0.32841722782278  0.50506969166917
 6  17.87731343564356  0.43286141194119 -0.10705898579858
 6  18.91982738223822  1.39959180598060  0.71357371907191
 6  20.28422610241024  1.37960370497050  0.29822942654265
 6  20.43276350525052  2.18138378637864 -1.07686350775078
 6  21.15045291939194  2.02157652705271  1.36353305490549
 1 -4.18759901840184  3.50749913161316  1.54458897989799
 1 -10.01354510621062  3.98338592249225 -0.69631393399340
 1 -10.32626188798880 -2.46943699839984 -0.99615316281628
 1 -2.48405709640964 -0.99102876657666  2.11713895249525
 1 -2.17320695869587  1.58601709030903  1.05792015851585
 1 -1.99668339163916  0.92559804880488  3.44513472687269
 1 -3.00011479767977  2.31530098669867  3.50837540504050
 1 -3.52907388858886  0.81073544124412  3.66077996249625
 1 -2.01712423932393 -1.55631155155516 -0.33215820182018
 1 -2.18992319451945  0.21049314061406 -0.73194829642964
 1 -0.20918801280128  0.53264118761876  0.83065531743174
 1 -0.21477743144314 -1.14597757315732  1.32800567646765
 1 -4.92028419611961  6.29715489058906  0.45280706290629
 1 -5.97052172247225  6.79021882068207  1.80527521672167
 1 -4.65320854965497  5.51406657805781  1.92414609330933
 1 -9.67762526142614  5.99757269336934  0.30308815331533
 1 -8.88985962636263  8.16163475297530 -0.12846225292529
 1 -6.94890992759276  7.24888545774578 -0.10770524112411
 1 -11.98179359215922  3.29977728302830 -1.87085338373837
 1 -13.15075028852885  1.75349098719872 -1.67768129182918
 1 -12.51813877527753  2.93717680308031 -0.29374087208721
 1 -12.50995352345235 -1.61917431563156 -0.93565377327733
 1 -13.22487849144914 -0.16152996599660 -1.51920927792779
 1 -13.23064353055305 -1.83278451765176 -3.19224222192219
 1 -12.50241041504150 -0.21141986788679 -3.74338191319132
 1 -11.54018736633663 -1.49740268426843 -3.20259937543754
 1 -8.98831972787279 -4.86857970627063 -1.70518810021002
 1 -7.62831653265327 -5.71053116131613 -0.62729695779578
 1 -9.33664583038304 -5.18460524752475  0.03256500030003
 1 -3.36087621962196 -3.24273585808581 -0.53216986998700
 1 -1.64341543154315 -4.42112048934893  3.51281796879688
 1 -2.93509869726973 -5.80458110051005  3.44865208730873
 1 -1.68486991349135 -5.93525770287029  2.30285698859886
 1  2.72684735583558 -1.76265595549555 -1.44662873917392
 1  2.60658235843584 -0.08056513811381 -2.09697171697170
 1  4.28449767406741 -1.10465847204721  0.30059243544354
 1  3.93244418071807  1.48798989528953 -2.25418876117612
 1  5.68511180958096  2.02404679487949 -1.92531688628863
 1  5.53412873567357  0.66927725792579 -2.99547084638464
 1  6.71334435773577  1.36776300400040  0.29632713041304
 1  6.42595594359436 -0.25103835273527  0.67722872997300
 1  7.61370511261126 -1.22014308600860 -1.25213934263426
 1  7.85132666366637  0.46519339583958 -1.89491963886389
 1  9.28858495569557  0.97852046854685  0.25975993849385
 1  8.84888271107111 -0.59538789418942  0.70851547014701
 1  10.31533324482448 -0.01930716441644 -2.05303913451345
 1  9.22322881928193 -2.09289633393339 -1.92853781498150
 1  10.92554563926393 -2.28791530413041 -1.76665285128513
 1  9.88731620522052 -2.61786340894089 -0.50017210791079
 1  11.57977273947395  0.78496290379038  0.41665362876288
 1  11.35351576127613 -0.78261059915992  0.98762623562356
 1  12.87521325702570 -1.72034889628963 -0.98582691759176
 1  12.84471337733773 -0.21903242424242 -1.65803416721672
 1  13.76253775697570  0.99615287078708  0.53995065556556
 1  14.13553964426443 -0.86300873817382  1.02354752445245
 1  15.34360675277528  0.10921078147815 -1.42074173367337
 1  15.75223722472247 -2.24744147004700 -0.02668026562656
 1  15.14861239303930 -2.02715090869087 -1.81265898629863
 1  16.73258131673168 -1.74155808440844 -1.45202731153115
 1  16.04879008870887  1.37666673937394  0.89690311131113
 1  16.63508521052105 -0.26356275197520  1.51535446714671
 1  18.36344553645365 -0.59166613041304 -0.30923693129313
 1  17.82507258845885  0.76874813331333 -1.29131261516152
 1  18.54991367416742  2.38108000760076  0.72711781268127
 1  18.95087136453645  1.00691430273027  1.78540489208921
 1  20.53963403010301  0.31375781158116  0.11011876227623
 1  19.84184101740174  3.22779176407641 -0.81015128462846
 1  21.48011412531253  2.55890176807681 -1.45360661466146
 1  19.90050088328833  1.79039044134413 -1.86952737603760
 1  21.03099311461146  1.52444174797480  2.36959640124012
 1  22.05229987048705  1.93954248544855  1.05094936113611
 1  20.74668720132013  3.02930660686069  1.59234516571657

