%nproc=3
%Mem=2GB
# td=(NStates=10) iop(3/107=0140000000,3/108=0140000000) CAM-B3LYP/6-31G(d,p) 

TD

0 1
12 -7.24182585188519  0.67574581528153  0.06991504010401
 6 -4.93284216531653 -1.97611972327233  0.46395203010301
 6 -4.78464777107711  2.85655998329833  1.05276873407341
 6 -9.34874946374637  3.10871327072707 -0.49311064406441
 6 -9.56945797339734 -1.74552472747275 -0.93171128612861
 7 -5.11885466706671  0.46709797029703  0.60250777117712
 6 -4.45548315361536 -0.68431905230523  0.67186908970897
 6 -2.87698866006601 -0.42684795689569  1.14965040624062
 6 -2.94448473767377  1.07447858035804  1.62984579097910
 6 -4.31094918161816  1.56217659805981  1.15056131733173
 6 -2.83654144514451  1.32739922722272  3.17825135123512
 6 -1.95272955385539 -0.68003201330133 -0.01605227942794
 6 -0.42330058405841 -0.49074730613061  0.50503908680868
 6  0.53131250965097 -0.78671210331033 -0.63292494429443
 8  0.23072362206221 -1.14240564436444 -1.77716699699970
 8  1.71618864386439 -0.64144905170517 -0.14642886298630
 7 -7.17419502800280  2.60897230453045  0.38964412121212
 6 -6.13689082008201  3.37155810971097  0.89405738973897
 6 -6.47265525522552  4.76103673407341  0.88426619111911
 6 -7.69560015541554  4.77726761346135  0.50744765176518
 6 -8.16408696189619  3.43448373967397  0.15635597479748
 6 -5.54834061526153  5.83407449874987  1.37049357455746
 6 -8.59077829022902  5.99977504550455  0.41055107700770
 6 -8.31362055985599  7.27995407970797  0.20650638833883
 7 -9.13277831353135  0.66454293259326 -0.39378108340834
 6 -9.84509616861686  1.81904258685869 -0.66851197539754
 6 -11.22479722262226  1.52244323472347 -1.06587133673367
 6 -11.24077259795980  0.11392526982698 -1.26023528972897
 6 -9.99171905560556 -0.36677516561656 -0.93554285718572
 6 -12.26757499959996  2.47852013291329 -1.32341287218722
 6 -12.44951499719972 -0.69780084228423 -1.63355853305331
 6 -12.50121645364536 -1.10269415461546 -3.18161626702670
 7 -7.31304755685569 -1.32722208380838 -0.18290140884088
 6 -8.29385460776078 -2.21729766926693 -0.65347315321532
 6 -7.90170783828383 -3.55623980688069 -0.55267369636964
 6 -6.55954147614761 -3.52069638513851 -0.12547503960396
 6 -6.30838561676168 -2.16218237273727  0.03701532293229
 6 -8.82573291799180 -4.73977679657966 -0.77163671067107
 6 -5.33689022672267 -4.36356234153415  0.12895139503950
 8 -5.22966432823282 -5.57275992959296  0.09990602540254
 6 -4.25938934893489 -3.31503443754375  0.51278217021702
 6 -3.55911027522752 -3.68711479607961  1.77672885258526
 8 -3.66364001860186 -3.01366459925993  2.85898961426143
 8 -2.79984133203320 -4.75413356585659  1.59754784278428
 6 -1.96947958645865 -5.12826329562956  2.68602993999400
 6  2.85816959355936 -0.74954421212121 -1.11213658855886
 6  4.17194051645165 -0.56178002740274 -0.37405993469347
 6  5.16993060046005  0.25820914541454 -0.75196509670967
 6  5.21843926052605  1.04628916521652 -2.04335142624262
 6  6.46728318591859  0.17356616351635 -0.01347803400340
 6  7.69300703960396 -0.28735061696170 -0.70316998569857
 6  8.97977706010601 -0.22106183968397  0.14951235703570
 6  10.26288718171817 -0.58578567686769 -0.66910330473047
 6  10.24633181938194 -2.10472980788079 -1.13770543204320
 6  11.44690580768077 -0.38904979557956  0.18686888558856
 6  12.79951712071207 -0.35110162606261 -0.65124566436644
 6  13.97211289908991 -0.06333309650965  0.28201541454145
 6  15.40853619761976 -0.18939155085509 -0.39502255255526
 6  15.75074917711771 -1.70971375717572 -0.72305958575858
 6  16.42137539153915  0.49156354245425  0.35673485818582
 6  17.85738144244425  0.73044116991699 -0.33873215311531
 6  18.79048444794480  1.36856870367037  0.68246060776078
 6  20.33443112291229  1.54083982858286 -0.06139653605361
 6  20.16305653455345  2.29918556655666 -1.30295611701170
 6  21.37338521262126  2.11649601900190  0.96661336293629
 1 -4.11130138863886  3.75670405210521  1.24800932193219
 1 -10.18644239593960  3.76243382728273 -0.58652295489549
 1 -10.17245650745074 -2.47526758145815 -1.19892343984398
 1 -2.76973566426643 -1.02167183088309  2.09350658925893
 1 -2.23847348534854  1.76572506110611  0.97378174467447
 1 -1.87846156945695  1.01213670267027  3.62902311571157
 1 -3.05371015721572  2.32967242384238  3.60501506900690
 1 -3.72213319451945  0.60348471617162  3.48327221172117
 1 -2.05127765466547 -1.57489340974097 -0.50865585158516
 1 -2.14574877707771  0.19562165346535 -0.94783988558856
 1 -0.28289538353835  0.41591951545154  0.91283353525353
 1 -0.24815076877688 -1.27766074147415  1.11687456335634
 1 -4.98327049474947  6.19978515361536  0.50613239543954
 1 -6.20774544484448  6.66769656845684  1.75560024922492
 1 -4.94435766456646  5.56514168556856  2.37581125982598
 1 -9.74733223212321  5.72870580668067  0.63094093859386
 1 -8.98259890029003  8.23874246374637  0.15016560986099
 1 -7.33633867046705  7.60304087328733 -0.07885235583558
 1 -11.76104151695170  3.02397970327033 -2.20429672807281
 1 -13.27541275477548  2.13635927402740 -1.71660518421842
 1 -12.34726168756876  3.07926101150115 -0.51211270927093
 1 -12.51869439753975 -1.61924432263226 -1.00081028892889
 1 -13.38542454605461 -0.24611842484248 -1.50130748774877
 1 -13.17426789298930 -1.86960820002000 -3.53979697739774
 1 -13.00127030103010 -0.13927265316532 -3.75539311431143
 1 -11.51139448704870 -1.34085702970297 -3.78104722022202
 1 -9.21650254615462 -4.83888673697370 -1.73671125252525
 1 -8.25651935293529 -5.76039614781478 -0.88018224632463
 1 -9.53047521332133 -4.66307309430943  0.06282802660266
 1 -3.24284441644164 -3.35237682218222 -0.20218687168717
 1 -1.17376846684668 -4.24384276157616  2.93051973897390
 1 -2.66947213461346 -5.18780942334233  3.72820004210421
 1 -1.45757718421842 -6.03203738083808  2.25868257115712
 1  2.72489716081608 -1.73345303520352 -1.55801987828783
 1  2.51702340254025 -0.13524060566057 -1.94225624542454
 1  4.16806603090309 -1.12229023522352  0.65848822502250
 1  4.23311424772477  1.40304140044004 -2.18114145644564
 1  5.49434273267327  1.98162255245525 -1.90203455805581
 1  5.72761808460846  0.61790212041204 -2.73585488478848
 1  6.49742276557656  1.17918414611461  0.38415591329133
 1  6.27701104910491 -0.38793204210421  0.91217222432243
 1  7.33798754085409 -1.39561063276328 -1.22070619931993
 1  8.11573310431043  0.17218409490949 -1.64364451135114
 1  9.22247834503450  0.85328794529453  0.37925188768877
 1  8.84308213101310 -0.99466782218222  1.00676529512951
 1  10.36708842034203 -0.00408564226423 -1.46311014161416
 1  9.32354885128513 -2.39349639393939 -1.70495545674567
 1  11.25783886858686 -2.65899241184118 -1.58905509150915
 1  10.11581905550555 -2.80700232283228 -0.16354844554455
 1  11.19660442264226  0.46980138763876  0.86739870327033
 1  11.67828823852385 -1.14815715381538  1.07403487648765
 1  12.83624936063606 -1.31849871127113 -1.14558289318932
 1  12.59113801980198  0.44322380138014 -1.37480584438444
 1  13.81914341754175  0.76256951245124  0.82482914341434
 1  14.01772786308631 -0.64265670297030  1.24055922562256
 1  15.37062945504550  0.52740260066007 -1.34498415791579
 1  15.82982498349835 -2.08429515541554  0.51205360776078
 1  14.91122865466547 -2.12525071867187 -1.29651737213721
 1  16.75238329692969 -2.01072500110011 -1.05776788558856
 1  16.10189539923992  1.48681775447545  0.59637305830583
 1  16.75410711271127 -0.12362875857586  1.18328125982598
 1  18.30597978987899 -0.20621758555856 -0.63572958055806
 1  17.81478155935594  1.13633489198920 -1.27446092999300
 1  18.47467615041504  2.33176507610761  0.78556365726573
 1  18.98541481888189  0.87183079437944  1.41321767336734
 1  20.63412347904790  0.54693112891289 -0.16111836143614
 1  19.92988982228223  3.36192517741774 -0.99359962946295
 1  21.16631274517452  2.22779865776578 -1.77779903390339
 1  19.34936576977698  1.87686908920892 -2.05997642094209
 1  21.26008602390239  1.42640194399440  1.85948539013901
 1  22.32391703220322  1.93468199939994  0.41552581878188
 1  21.06684921752175  2.95407908410841  1.57081301250125

