%nproc=3
%Mem=2GB
# td=(NStates=10) iop(3/107=0140000000,3/108=0140000000) CAM-B3LYP/6-31G(d,p) 

TD

0 1
12 -7.14513618291829  0.50912915361536  0.06034408300830
 6 -4.85617449854985 -2.04400651195120  0.52622825772577
 6 -4.83461276757676  2.84296862416242  1.16686014321432
 6 -9.43432802160216  3.13590598999900 -0.34068540154015
 6 -9.60546157375738 -1.78275845084508 -0.86057417241724
 7 -5.07572035363536  0.42658391889189  0.72375989638964
 6 -4.32887049234923 -0.73648426882688  0.77342924572457
 6 -2.93366432763276 -0.42404767686769  1.08974441564156
 6 -3.01038132733273  1.14967610011001  1.60922372877288
 6 -4.47069515621562  1.50668104850485  1.07475373657366
 6 -2.90549834083408  1.32334882218222  3.00876440254025
 6 -1.91317559845985 -0.67483149324933  0.07738706450645
 6 -0.47513576757676 -0.58979721112111  0.54371295419542
 6  0.53343272167217 -0.69231266336634 -0.62538419021902
 8  0.26087663736374 -1.12503390719072 -1.68341762206221
 8  1.79681670667067 -0.38626353315332 -0.21432565266527
 7 -7.17261486998700  2.61668307560756  0.36452160896090
 6 -6.11707883888389  3.31806276017602  0.80578856285629
 6 -6.44071206090609  4.68145877627763  0.90998876337634
 6 -7.70851144654465  4.86951683838384  0.39185609260926
 6 -8.15491604480448  3.51966225752575  0.06948728792879
 6 -5.52170795199520  5.83473456475648  1.48180470567057
 6 -8.56553576597660  5.97875294329433  0.27108713061306
 6 -8.19715891369137  7.23457954225423  0.04996073377338
 7 -9.16865190089009  0.64540101840184 -0.46090779607961
 6 -9.86316797579758  1.87478816141614 -0.59274439863986
 6 -11.27774251715172  1.51048203860386 -1.01064581418142
 6 -11.29685820652065  0.16336021332133 -1.20237950415041
 6 -9.98299818351835 -0.43919240734073 -0.80600990389039
 6 -12.33876211831183  2.60509279017902 -1.38878940984098
 6 -12.42757280298030 -0.62830389258926 -1.75479065626563
 6 -12.25643197519752 -0.95608949414941 -3.21375948134814
 7 -7.23147940004000 -1.40179954155416 -0.10473359205921
 6 -8.30928615091509 -2.24672061156116 -0.55895370127013
 6 -7.88252592009201 -3.61730591349135 -0.46290471947195
 6 -6.49728525052505 -3.63389770527053  0.03078058595860
 6 -6.21652643084308 -2.21257741224122  0.20106172757276
 6 -8.69055940064006 -4.79270208910891 -0.97692723972397
 6 -5.30454699239924 -4.47012299759976  0.21396989688969
 8 -5.09366072787279 -5.60880353395340  0.10099613441344
 6 -4.13406681668167 -3.40706364046405  0.47940883288329
 6 -3.51205556975698 -3.79498558315832  1.81434261396140
 8 -3.84054770937094 -3.19782301510151  2.90361407670767
 8 -2.67410875877588 -4.81728988148815  1.77536562456246
 6 -2.16529916841684 -5.25778624792479  3.04910624762476
 6  2.77680145674567 -0.55948520622062 -1.09693506840684
 6  4.15892921532153 -0.40900474987499 -0.43405593429343
 6  5.00045365276528  0.45227855235524 -0.92627252745275
 6  5.04765218181818  1.38632316861686 -2.09670676177618
 6  6.42302876047605  0.50330913781378 -0.18899558575858
 6  7.55634337323732 -0.20022190409041 -0.90253992269227
 6  8.94717379977998  0.01150141664166 -0.07782037623762
 6  10.26326721972197 -0.53013011131113 -0.88461485588559
 6  10.00154734093409 -2.01261059595960 -1.28304996649665
 6  11.51525264236424 -0.27140803140314 -0.10563036433643
 6  12.87961513051305 -0.45774229012901 -0.84692523232323
 6  13.98134382218222 -0.06193295649565  0.10874808780878
 6  15.36184152815282 -0.21678429012901 -0.54099715001500
 6  15.68591269346935 -1.73702648844884 -0.79138641844184
 6  16.43005625962596  0.34919930603060  0.32558174287429
 6  17.88605430973097  0.58052617841784 -0.23894217411741
 6  18.84604000350035  1.25103695049505  0.89631199289929
 6  20.28505618541854  1.39443518811881  0.28919852345235
 6  20.40685091399140  2.01296694469447 -1.09468528992899
 6  21.23251112521252  2.06904127352735  1.21158786038604
 1 -4.18077833633363  3.71783016471647  1.13874839583958
 1 -10.13058681038104  3.88621620552055 -0.57029133173317
 1 -10.29452871467147 -2.63895395009501 -1.07961150865087
 1 -2.98715740644064 -1.01931159485949  2.01438867746775
 1 -2.22651228922892  1.70588907750775  0.83842820932093
 1 -1.86134985828583  1.11895738473847  3.33430364376438
 1 -3.10974576077608  2.20437989458946  3.42689725722572
 1 -3.59952093329333  0.53873824152415  3.64878876337634
 1 -2.13488601550155 -1.66754267466747 -0.18311329732973
 1 -2.09605380758076 -0.20036794549455 -0.79658476007601
 1 -0.23889098309831  0.28412633613361  0.96091834373437
 1 -0.21159711341134 -1.21620459585959  1.50219309520952
 1 -4.95996816451645  6.32282745784578  0.54867664986499
 1 -6.16450112041204  6.68073787258726  1.53111780098010
 1 -4.99903313211321  5.53930910231023  2.33213689238924
 1 -9.56831433033303  5.92261519761976  0.79405725022502
 1 -8.92917355775577  7.97655624512451  0.00063065636564
 1 -7.25709074567457  7.30563113231323 -0.44712918351835
 1 -12.07301271407141  3.12093939923992 -2.49850614901490
 1 -13.09081429492949  1.99869550765076 -1.37939146284628
 1 -12.30751771317132  3.64753783918392 -0.67315881388139
 1 -12.46538906700670 -1.72410480868087 -1.40929113701370
 1 -13.35058106170617 -0.25861967496750 -1.51818917591759
 1 -13.25415588178818 -1.67733897309731 -3.47933093079308
 1 -12.31725189918992 -0.12215094099410 -3.98111568656866
 1 -11.08210155775578 -1.21047399139914 -3.27064618011801
 1 -8.85862675857586 -4.52735558385839 -2.03095067646765
 1 -8.19404310531053 -5.72458256645665 -1.01852608070807
 1 -9.69049121492149 -5.06339312631263 -0.36688494469447
 1 -3.40821095309531 -3.52783436793679 -0.22624927792779
 1 -1.33698478847885 -4.50512889018902  3.28719540654065
 1 -3.06389157655766 -5.23481412381238  3.75951317341734
 1 -1.46399782628263 -6.12550672777278  2.81872857575758
 1  2.62700737183718 -1.64518420832083 -1.56899097539754
 1  2.72049374957496  0.23058597699770 -1.87250927072707
 1  4.43613283758376 -0.95071307750775  0.58091046724672
 1  4.00354129042904  1.83847494379438 -2.48656199849985
 1  5.39173247164716  2.31718610881088 -1.85707006160616
 1  5.66137145994599  0.90121045124512 -2.85949724902490
 1  6.80267329062906  1.58856508420842 -0.02547504980498
 1  6.24115746374637  0.19966671777178  0.82270327742774
 1  7.47809155125513 -1.24549562126213 -1.10143427212721
 1  7.74699623062306  0.14964184068407 -1.95885603250325
 1  9.01757785498550  1.02694531103110  0.17837179967997
 1  8.87648547134713 -0.66698505390539  0.86772139073907
 1  10.28097980948095  0.09125389168917 -1.85875970657066
 1  9.05273176957696 -2.22129917421742 -1.90434539573957
 1  10.97632071677168 -2.54979149174918 -1.77241342734273
 1  9.70255772937294 -2.67471909450945 -0.37424951565157
 1  11.29383414561456  0.80559496699670  0.32412437583758
 1  11.43271368106811 -0.88350068816882  0.78733620662066
 1  13.00346608230823 -1.55428228962896 -1.08506684158416
 1  12.76982588858886  0.12114159315932 -1.85263362716272
 1  14.04546604980498  1.18621187668767  0.31510817131713
 1  13.91523761406141 -0.66985942324232  1.12921809150915
 1  15.01519391149115  0.39662952335234 -1.43689334883488
 1  15.65169717071707 -2.38163488938894  0.20421282368237
 1  15.06061359315932 -2.18351654525453 -1.62308002840284
 1  16.73301135973598 -1.74879880848085 -1.31732384118412
 1  16.07300250995100  1.27414648734873  0.85675909690969
 1  16.63233493549355 -0.25065146084608  1.33822675437544
 1  18.53322251415142 -0.31347831163116 -0.36236224382438
 1  18.09100918211821  1.12465372387239 -1.19513299719972
 1  18.64129281208121  2.30676257585759  1.20073517441744
 1  18.83274955235524  0.56429004030403  1.87019337093709
 1  20.64845491219122  0.43347978377838  0.23205095549555
 1  20.02659949324932  3.08385737063706 -1.00637090659066
 1  21.33581969586959  1.84828070597060 -1.38522977697770
 1  19.65172600580058  1.75397679998000 -1.83614403770377
 1  21.25021503680368  1.39386869066907  2.18767820942094
 1  22.24018865936594  2.23109164036404  0.91242550875088
 1  21.15194772737274  3.26016969316932  1.39422535373537

