%nproc=3
%Mem=2GB
# td=(NStates=10) iop(3/107=0140000000,3/108=0140000000) CAM-B3LYP/6-31G(d,p) 

TD

0 1
12 -7.22806447574757  0.63416165686569  0.07253530213021
 6 -4.90754963606361 -2.02579469076908  0.56087172207221
 6 -4.83223252955296  2.83375770307031  1.02638609580958
 6 -9.51635622442244  3.06992939233923 -0.25012634563456
 6 -9.48670969856986 -1.76726690169017 -0.82015013001300
 7 -5.13942672427243  0.53332459295930  0.67139465986599
 6 -4.37661526682668 -0.75759638003800  0.73647555035504
 6 -2.98685964716472 -0.37544281638164  1.19160460166017
 6 -3.04551484068407  1.10273140564056  1.63343615001500
 6 -4.43152123882388  1.57229761016102  1.10134639583958
 6 -3.02265005600560  1.29870635793579  3.17139066516652
 6 -1.89647392829283 -0.65821983208321  0.12534185998600
 6 -0.38258651265126 -0.37302553395340  0.67143572647265
 6  0.57968734713471 -0.61776520862086 -0.50184183598360
 8  0.29057960766077 -0.80548195199520 -1.66989626992699
 8  1.88717574257426 -0.39335424222422 -0.11339555965597
 7 -7.23529113761376  2.52685409270927  0.32434759155916
 6 -6.20282741374137  3.36907786168617  0.80595857985799
 6 -6.57765575527553  4.74866549694969  0.91716948144814
 6 -7.86184678007801  4.76218610531053  0.45706261326133
 6 -8.19663021622162  3.43262355365537  0.09410975017502
 6 -5.62684846604660  5.87539863116312  1.40649717491749
 6 -8.78117733013301  6.02161722972297  0.30225024692469
 6 -8.36905610341034  7.21620770507051  0.14079981768177
 7 -9.14160919661966  0.67398387668767 -0.53016472177218
 6 -9.96874853385338  1.78336901950195 -0.57397252145215
 6 -11.27459220212021  1.40358134853485 -1.07941269086909
 6 -11.39398791949195  0.06610048734874 -1.24078334453445
 6 -9.92470235393539 -0.41941042914291 -0.86309561246125
 6 -12.36560480258026  2.36220850175017 -1.26779731063106
 6 -12.43017306300630 -0.75961702390239 -1.80743592079208
 6 -12.35027135913591 -1.02291617681768 -3.31869997539754
 7 -7.23898015011501 -1.36509587118712 -0.13559667836784
 6 -8.27975319761976 -2.27394333383338 -0.52526033193319
 6 -7.79028669616962 -3.63543772667267 -0.47393582258226
 6 -6.49666518851885 -3.61573588908891 -0.06690918301830
 6 -6.18184296249625 -2.20797695219522  0.13851547294729
 6 -8.57586793149315 -4.80418323722372 -0.91216076307631
 6 -5.31746828452845 -4.37442342764276  0.19616811671167
 8 -5.15241660346035 -5.61878453205320  0.17007304210421
 6 -4.14407781778178 -3.32557549164917  0.52027291929193
 6 -3.48535289948995 -3.64420050465047  1.80175135483548
 8 -3.70908456305631 -3.10396362916292  2.88435215051505
 8 -2.68625997389739 -4.57778593109311  1.70255834383438
 6 -2.10581321982198 -5.15751622092209  2.82880421742174
 6  2.83687746434643 -0.58817807550755 -1.15394076897690
 6  4.14311763416342 -0.38352220162016 -0.63006553525353
 6  5.13886749414942  0.40026335083508 -0.97490739093909
 6  5.00493791039104  1.16852138843884 -2.28089518061806
 6  6.47736419401940  0.49685849274927 -0.14429111531153
 6  7.65508324722472 -0.23791567346735 -0.86197586628663
 6  8.98239732213221 -0.02730246374637 -0.17615020922092
 6  10.20163105610561 -0.50686778507851 -0.94086048044805
 6  10.22437962416242 -1.87179651455146 -1.37003866536654
 6  11.49308042514251 -0.22990388098810 -0.02327212851285
 6  12.87592476147615 -0.66573308920892 -0.69496003580358
 6  14.02756844464446 -0.21894865806581  0.17801501450145
 6  15.43189853385338 -0.24784739643964 -0.48887193749375
 6  15.73256735893589 -1.71102388818882 -0.91904918471847
 6  16.50001325532553  0.26912129822982  0.48009719441944
 6  17.83192889718972  0.39487761356136 -0.21249952985299
 6  18.85041044054406  1.25158700550055  0.66431879357936
 6  20.39686736653665  1.24618036263626  0.22352195579558
 6  20.43261349024902  2.10515616361636 -1.08760458185819
 6  21.17778565266527  1.95683005240524  1.39623632523252
 1 -3.94335459395940  3.50161854355436  1.48369289028903
 1 -10.21837558925893  3.85596318021802 -0.16494079667967
 1 -10.25316457825783 -2.58934898959896 -0.99486303380338
 1 -2.68771746244624 -1.05565522922292  1.95395263386339
 1 -2.33773341134113  1.77661615021502  1.23552791929193
 1 -2.09649337263726  0.90413590259026  3.64812502590259
 1 -3.09815460166017  2.31163061966197  3.45064963246325
 1 -3.77084806600660  0.71845621332133  3.70588447294729
 1 -1.80726325322532 -1.70646656705671 -0.35002998899890
 1 -2.02531673387339 -0.09640754945495 -0.74731983358336
 1 -0.16690378437844  0.61619954345435  0.85189744164416
 1 -0.27373332703270 -1.11613458885889  1.47841071697170
 1 -5.16291845954595  6.24162933803380  0.66528831103110
 1 -6.25848051835183  6.55226502530253  1.99544423362336
 1 -4.98028125692569  5.54836000740074  2.20656433513351
 1 -9.88213571247125  5.82840577667767  0.32352019651965
 1 -9.16320696109611  7.93738232773277 -0.11494090079008
 1 -7.26344138073807  7.45818638783878  0.02696822622262
 1 -11.93436884968497  3.22927023232323 -1.98384468286829
 1 -13.32002721622162  1.72851848994900 -1.66074959865987
 1 -12.67377433883389  2.88544162956296 -0.36669816781678
 1 -12.45152768086809 -1.56464886308631 -1.18837904580458
 1 -13.38838484208421 -0.41683549654966 -1.53941129812981
 1 -13.14004447064706 -1.79072031123112 -3.75558855655566
 1 -12.51669184318432 -0.09500822672267 -3.85308288328833
 1 -11.28298164576458 -1.54408735273527 -3.42583169866987
 1 -8.71273216911691 -4.55971882018202 -2.12614019541954
 1 -7.92232593359336 -5.61075118331833 -0.69210343844384
 1 -9.47675984178418 -4.68602538953895 -0.26263451965197
 1 -3.32830296229623 -3.35535712021202 -0.28807546054605
 1 -1.38031912191219 -4.34604298159816  3.26154284128413
 1 -2.80401558895890 -5.22791343374337  3.64736195829583
 1 -1.48469989648965 -5.90737491459146  2.73349005190519
 1  2.69772444354435 -1.74173386328633 -1.37244132043204
 1  2.63835553575358  0.03610652905290 -2.15178719851985
 1  4.22322154645465 -0.68729673587359  0.35476785298530
 1  3.90950188648865  1.21402249854985 -2.65186852915292
 1  5.22070536893689  2.24853924412441 -2.11880623522352
 1  5.73321864466447  0.72928325852585 -3.02608390769077
 1  6.84202722602260  1.60952718041804 -0.06029853215322
 1  6.44987833583358  0.29708645974597  0.98249925702570
 1  7.38423216531653 -1.38184925662566 -0.73647777647765
 1  7.41092262326233  0.22638951545155 -1.94534468136814
 1  9.15038113531353  1.04039665616562 -0.19271530903090
 1  8.83623144594459 -0.42830118551855  0.93056767536754
 1  10.36950866236624  0.10649541584158 -1.85184901550155
 1  9.47666416281628 -1.91472851715172 -2.28544350555056
 1  11.39675275997600 -2.26440295289529 -1.44044023002300
 1  10.01864933853385 -2.39365098769877 -0.49774186488649
 1  11.75738050025002  0.82949735723572  0.31450341374137
 1  11.13626403610361 -0.89305164326433  0.90338781178118
 1  12.96261199689969 -1.89760662206221 -0.74513284818482
 1  13.03478238423842 -0.17708822982298 -1.80328869266927
 1  13.76198770197020  0.63953720922092  0.57480414091409
 1  14.01124721502150 -0.76239867716772  1.04706987668767
 1  15.37707009910991  0.47590745114511 -1.38933859335934
 1  15.83565556655666 -2.31721844774477  0.24730713311331
 1  14.90528806060606 -2.07018521212121 -1.62108982938294
 1  16.69164722332233 -1.71413534213421 -1.50469257805781
 1  16.28682389208921  1.20010908360836  0.94264768576858
 1  16.38911061306131 -0.36698309400940  1.30678361006101
 1  18.45832502440244 -0.51311827562756 -0.26653266086609
 1  17.90107018821882  0.76620787928793 -1.21698518241824
 1  18.59686836963696  2.34168606820682  0.73414851575158
 1  18.63927020442044  0.83074668596860  1.74959131073107
 1  20.42755282198220  0.24989142494249  0.04870262066207
 1  20.21613844714471  3.02014099899990 -0.85808607810781
 1  21.50926704060406  2.13166904480448 -1.45359661366137
 1  19.75484631783178  1.69840124242424 -1.90851127442744
 1  21.16162617791779  1.43610291409141  2.30176961856186
 1  22.18453309380938  2.05835436663666  0.94685895209521
 1  20.81206373897390  3.06627030323032  1.31279721092109

