%nproc=3
%Mem=2GB
# td=(NStates=10) iop(3/107=0140000000,3/108=0140000000) CAM-B3LYP/6-31G(d,p) 

TD

0 1
12 -7.14356602590259  0.60275851655166  0.10067811641164
 6 -4.84457333843384 -2.01152326362636  0.53042867776778
 6 -4.82459176547655  2.84595892319232  1.20603406060606
 6 -9.47449203800380  3.05321772117212 -0.32673400640064
 6 -9.48471949954996 -1.79801997699770 -0.82390050505051
 7 -5.03116589818982  0.44294555505551  0.71416893729373
 6 -4.32116972227223 -0.73737435783578  0.88606050885089
 6 -2.96122708390839 -0.36977224932493  1.30017545874587
 6 -3.06603689288929  1.10832196469647  1.71158396479648
 6 -4.39062714941494  1.56652703310331  1.25403166436644
 6 -2.88140593159316  1.31543803110311  3.20529405550555
 6 -1.91221550245025 -0.61319532963296  0.09345867166717
 6 -0.52606086008601 -0.47553578497850  0.54791337423742
 6  0.52656203460346 -0.50641407350735 -0.61893354515452
 8  0.31851240094009 -0.72411381518152 -1.79790907120712
 8  1.78277530253025 -0.38180308710871 -0.19024324442444
 7 -7.04738234673467  2.56921832913291  0.24436959375938
 6 -6.07128425942594  3.39903085698570  0.74253223722372
 6 -6.43064105380538  4.76740737113711  0.90230799529953
 6 -7.76944754015402  4.77831771847185  0.41585849284929
 6 -8.17767832103210  3.43178346964696  0.07155749494949
 6 -5.63678946014601  5.87149824112411  1.39956648184818
 6 -8.64290350275028  5.97749281728173  0.27501752365237
 6 -8.16988618641864  7.23768985328533  0.00883662136214
 7 -9.13713874957496  0.64482096039604 -0.57232893819382
 6 -9.87204886388639  1.79319000160016 -0.67313243744374
 6 -11.22817756065607  1.31766275667567 -1.17384213381338
 6 -11.22659117981798  0.01524540184018 -1.32202146834683
 6 -9.89585946964696 -0.41920040814081 -0.92754205710571
 6 -12.37621586368637  2.42412469336934 -1.40054058495850
 6 -12.32971301700170 -0.90191125332533 -1.72883806100610
 6 -12.42072840484049 -1.05428931413141 -3.25226333173317
 7 -7.24861111321132 -1.37490685228523 -0.06007912661266
 6 -8.22782800510051 -2.23549948944894 -0.54480228612861
 6 -7.78247591509151 -3.68384256715672 -0.37238566756676
 6 -6.54392991499150 -3.58367268276828 -0.04540703280328
 6 -6.11114589278928 -2.18661481598160  0.14767638903890
 6 -8.48745909060906 -4.91943476237624 -0.82778232523252
 6 -5.28755529322932 -4.40666665196520  0.23152165206521
 8 -5.08287964976498 -5.50756340994099  0.10594662946295
 6 -4.15354876487649 -3.28178111221122  0.49735062706271
 6 -3.51307567176718 -3.63802988758876  1.82984416411641
 8 -3.71790544514451 -3.19637287008701  2.91929564486449
 8 -2.59907125502550 -4.70627878037804  1.64880296829683
 6 -2.02757539603960 -5.33894436373637  2.87252858985899
 6  2.85561933853385 -0.49059831753175 -1.17315269016902
 6  4.07515083748375 -0.20926477587759 -0.58336086478648
 6  5.19295290269027  0.51474479897990 -0.91758165836584
 6  5.14224164076408  1.51948648494849 -2.10027711881188
 6  6.47546400400040  0.48953776067607 -0.18635532173217
 6  7.54063180208021 -0.00552243414341 -0.94708437713771
 6  8.90395947834783 -0.08298803230323 -0.16648924312431
 6  10.22235312831283 -0.58263536183618 -0.85350174457446
 6  10.01499868606861 -2.05041437633763 -1.27574923642364
 6  11.37073819091909 -0.21603249384938  0.03735393409341
 6  12.72947011601160 -0.56144266016602 -0.65074561436144
 6  13.87133282108211 -0.30159692289229  0.32839005200520
 6  15.23959930393039 -0.36891950365037 -0.38754180448045
 6  15.67068117031703 -1.73605639143914 -0.85998327812781
 6  16.32486574057405  0.20845523162316  0.58523770847085
 6  17.70699640394039  0.51625975177518 -0.13934221412141
 6  18.80024542404241  1.13247509430943  0.82555491719172
 6  20.15077275707571  1.30937668226823  0.09216882048205
 6  20.06791702060206  2.18487413541354 -1.27359318071807
 6  21.25387326142614  1.84845921532153  1.04676137773777
 1 -4.41369162766277  3.50201858355836  1.73970849184918
 1 -10.04230798249825  4.04872245614562 -0.80097440004000
 1 -10.20075933773377 -2.44529458415842 -1.14303785128513
 1 -2.60554924562456 -1.04745440914091  2.14347158575858
 1 -2.25206484448445  1.88715720432043  1.19398376487649
 1 -1.91913563686369  1.11301679067907  3.64300451385139
 1 -3.17471225742574  2.27786724332433  3.20267483498350
 1 -3.69059004020402  0.79885425312531  3.78928281278128
 1 -2.04096662356236 -1.48932485288529 -0.53052803880388
 1 -2.13043724592459  0.25875796709671 -0.55809091069107
 1 -0.27822491649165  0.32107003050305  1.16378863076308
 1 -0.33973992769277 -1.36301927732773  1.30941381728173
 1 -5.10061222892289  6.26333150825083  0.72394417661766
 1 -6.11986665696570  6.72510230903090  2.09550423962396
 1 -4.89967319611961  5.23263843524353  2.14731841054105
 1 -9.72147964686468  6.02200513661366  0.74436228072807
 1 -8.79060970137014  8.21788037753775  0.07516811011101
 1 -7.03996903350335  7.40636120532053 -0.17479194979498
 1 -12.00848626142614  3.26523382868287 -2.24602090049005
 1 -13.29442465596560  1.91241687978798 -1.77977150085008
 1 -12.47755471687169  3.10686377177718 -0.29173067106711
 1 -12.05803833193319 -1.82695509370937 -1.15063527142714
 1 -13.34837084068407 -0.48594240724072 -1.36232358935894
 1 -13.22697316351635 -1.67854909410941 -3.74597759545955
 1 -12.32392256625663  0.06605787988799 -3.53940151515152
 1 -11.48807215481548 -1.65553849784978 -3.76900601610161
 1 -8.66244714061406 -5.02210505880588 -1.93226080748075
 1 -8.02215591659166 -5.89149925812581 -0.36054028212821
 1 -9.42271443724372 -4.74398118511851 -0.19040729692969
 1 -3.21927205920592 -3.20348193269327 -0.25185183818382
 1 -1.43037412741274 -4.59577795509551  3.48170485748575
 1 -2.88167335473547 -5.67760840324032  3.59427664976498
 1 -1.48215964246425 -6.21193537063706  2.59383608650865
 1  3.16011068216822 -1.58101779167917 -1.75121919821982
 1  2.38470017021702  0.19605252365237 -2.10273229302930
 1  4.23586281058106 -0.63535154135414  0.40927330353035
 1  4.15230616691669  1.36664776107611 -2.66127947024702
 1  5.24718801720172  2.63374776497650 -1.75663001760176
 1  5.86650197299730  1.20592092229223 -2.99375067436744
 1  6.80297332063206  1.57045327302730 -0.07120962326233
 1  6.28083143114311  0.02258901000100  0.81428243534353
 1  7.17104084618462 -1.04817588928893 -1.29405353405341
 1  7.57084861586159  0.45933280978098 -1.98771891879188
 1  9.17960405760576  0.85583820032003  0.40308427092709
 1  8.96844466726673 -0.63878223362336  0.85675029362936
 1  10.39996170767077 -0.01649688338834 -1.76734056465647
 1  9.29378587498750 -2.35585262956296 -2.08622358355836
 1  10.87976106080608 -2.51752826542654 -1.60431661766177
 1  9.43590106370637 -2.58601022362236 -0.38454054475448
 1  11.38361312351235  0.93645805330533  0.23275523892389
 1  11.39297970767077 -0.76067840594059  1.01365883888389
 1  12.81487722342234 -1.61156801820182 -0.90217855275528
 1  12.84310321632163 -0.03398391939194 -1.54599296309631
 1  13.70577208040804  0.69036229172917  0.78179483998400
 1  14.02209830013001 -0.97930036733673  1.16755192489249
 1  15.08753114521452  0.20733059345935 -1.36317597709771
 1  15.72946494749475 -2.40962768866887 -0.08917651525152
 1  14.85879341114111 -2.24748294189419 -1.50127784818482
 1  16.52027008560856 -1.55530945954596 -1.60303241204120
 1  15.97089229892989  1.17992706540654  1.08094151515152
 1  16.55886758875888 -0.44862125782578  1.49833276497650
 1  18.28809800170017 -0.33722068586859 -0.56096210381038
 1  17.56700678187819  1.21584284278428 -0.98923240714071
 1  18.30574925772577  2.03225512511251  1.27448254915492
 1  18.91349762716272  0.34887849914991  1.75716206780678
 1  20.31285135183518  0.28182461826183 -0.34129637923792
 1  19.82029886318632  3.36795578047805 -1.07273754325433
 1  21.04401051495149  2.31801767966797 -1.67412866686669
 1  19.48744957815781  1.57611901420142 -1.90358078137814
 1  21.46432644794480  1.32116141994199  1.98287772937294
 1  22.22857749824983  1.90905943714371  0.67389165536554
 1  20.89796232883289  2.73271694789479  1.33396932813281

