%nproc=3
%Mem=2GB
# td=(NStates=10) iop(3/107=0140000000,3/108=0140000000) CAM-B3LYP/6-31G(d,p) 

TD

0 1
12 -7.06102777207721  0.59312755345535  0.09749779837984
 6 -4.80630951205120 -2.01059317061706  0.52280791569157
 6 -4.80168947524752  2.79203353065307  1.14332778997900
 6 -9.31931652045204  3.01784418381838 -0.40142147514751
 6 -9.48881990959096 -1.73556373137314 -0.90308842384238
 7 -4.99553233483348  0.38603986448645  0.67575509590959
 6 -4.25451305660566 -0.68843946434643  0.77897980078008
 6 -2.80832179337934 -0.42570784288429  1.15945138633863
 6 -2.97687797699770  1.01198233073307  1.75021782818282
 6 -4.40562864956496  1.52927330773077  1.13598986018602
 6 -3.06157394839484  1.08279476677668  3.29357288338834
 6 -1.89322360326033 -0.59009301940194  0.06175550135013
 6 -0.47656591059106 -0.51149938133813  0.51941052395240
 6  0.55682506090609 -0.75116854895490 -0.60032168396840
 8  0.39542009170917 -1.13333473727373 -1.77003628392839
 8  1.87636466146615 -0.39148405520552 -0.24725894599460
 7 -7.06367397589759  2.49203061036104  0.35738089488949
 6 -6.01025815681568  3.33880483438344  0.77478546254625
 6 -6.36546453615362  4.71863249364936  0.84272203670367
 6 -7.71413200860086  4.77306719341934  0.37242414941494
 6 -8.06327688088809  3.40708099939994  0.05638597779778
 6 -5.56351213241324  5.81072216351635  1.32177870307031
 6 -8.60779999239924  5.92407747574758  0.41947196909691
 6 -8.28117731553155  7.19245532983298  0.09687542524252
 7 -9.13660869656966  0.62135861416142 -0.56070777607761
 6 -9.84533619261926  1.78459914251425 -0.71233635783578
 6 -11.16442118501850  1.44552554295430 -1.11655640524052
 6 -11.24237275797580  0.07685156245625 -1.23831309750975
 6 -9.91864174787479 -0.43873236133613 -0.90565986888689
 6 -12.25833407550755  2.43581586248625 -1.32056258715872
 6 -12.40587063276328 -0.71589265146515 -1.73026820402040
 6 -12.42055838783878 -0.83132701790179 -3.24770287568757
 7 -7.15460171227123 -1.42167152875288 -0.13333645234523
 6 -8.32386760906091 -2.22227816731673 -0.45483328922892
 6 -7.79686735423542 -3.64500868376838 -0.54819324832483
 6 -6.49415493749375 -3.61422573807381 -0.14294678677868
 6 -6.16258103630363 -2.31063721822182  0.11374299569957
 6 -8.58924926962696 -4.76507932683268 -0.84210375737574
 6 -5.32931946964696 -4.47955394069407  0.15538403830383
 8 -5.18008937073707 -5.64028668226823  0.15144117891789
 6 -4.13252666266627 -3.44009694379438  0.61792268426843
 6 -3.60602496669667 -3.69987607220722  2.00961214091409
 8 -3.84843849844985 -3.05220845364536  3.02183589888989
 8 -2.75334668256826 -4.73614176667667  2.00897898589859
 6 -2.13612625112511 -5.12270273957396  3.24876621362136
 6  2.81321509810981 -0.47677693539354 -1.30117549244925
 6  4.15482880528053 -0.34650850025002 -0.62033456215622
 6  5.09128273567357  0.64272759725973 -0.92125202540254
 6  4.82571998859886  1.89784432073207 -1.94076116721672
 6  6.44420087768777  0.53511231813181 -0.25368205440544
 6  7.55693343224322 -0.07250913281328 -1.15472514121412
 6  8.82455153755376 -0.06189592309231 -0.38949154335434
 6  10.16290718371837 -0.54739183748375 -1.14061045544554
 6  10.09843702990299 -2.04273360826083 -1.50332199369937
 6  11.33822493959396 -0.24312520312031 -0.19074887618762
 6  12.79998716771677 -0.50630714661466 -0.70020055985599
 6  13.83896958475848 -0.10095685888589  0.21148836183618
 6  15.21499684368437 -0.07293990569057 -0.42285533583358
 6  15.46146024822482 -1.56219900570057 -0.88616589638964
 6  16.34763801780178  0.51641602770277  0.50057924262426
 6  17.71625733003301  0.53515164096410 -0.12046032593259
 6  18.81824722422242  1.24588643544354  0.77210957265727
 6  20.28160584038404  1.24193993859386  0.32888249184918
 6  20.41024125302530  1.84474012201220 -1.02152797419742
 6  21.22490036413641  1.74985935533553  1.39326602820282
 1 -4.16463672217222  3.50880926262626  1.62668718971897
 1 -10.10516426812681  3.79090667456746 -0.47218152075207
 1 -10.31286054785478 -2.50042009670967 -1.18558210571057
 1 -2.68088677937794 -0.95269493319332  2.17344458305831
 1 -2.29605924392439  1.55129361796180  1.19038340484048
 1 -2.01027475077508  0.79063455245525  3.69756997039704
 1 -2.99826461266127  1.97924738133813  3.85997056455646
 1 -3.82678365956596  0.49977434513451  3.69850373487349
 1 -2.13111563846385 -1.65895181558156 -0.61304629062906
 1 -2.05637984018402  0.08782087338734 -0.77622272387239
 1 -0.16358345234523  0.61729965346535  0.92784503640364
 1 -0.24171012471247 -1.23371634703470  1.15447832373237
 1 -4.63880604830483  6.04616979207921  0.52824460666067
 1 -6.16781145144514  6.78318811761176  1.44466915611561
 1 -5.14955818461846  5.75154032543254  2.47532121082108
 1 -9.63451094999500  5.75344828092809  0.86154399889989
 1 -9.11115175557556  7.92310089958996  0.06202679597960
 1 -7.15140017661766  7.54102467166717 -0.43975844644464
 1 -12.09085449824983  2.94492179747975 -2.40651695009501
 1 -13.26276148964896  1.89411504960496 -1.18530205390539
 1 -12.42508947034704  3.29417250265027 -0.53659515751575
 1 -12.60126265436544 -1.65058745694569 -1.17911811971197
 1 -13.31034703830383 -0.09890370337034 -1.47184454145415
 1 -13.35815628182818 -1.44993623282328 -3.38893189088909
 1 -12.25085525952595  0.07716899099910 -3.86848442344234
 1 -11.66014936253625 -1.68678162216222 -3.73356247174718
 1 -9.01738263416342 -4.82719556785679 -1.82532011341134
 1 -7.93125682668267 -5.59178928712871 -0.79906413451345
 1 -9.48255042084208 -4.83800058705871 -0.24653290949095
 1 -3.20630076207621 -3.64720630513051 -0.06161281428143
 1 -1.65267635763576 -4.13067144444444  3.58831551855186
 1 -3.05364055145515 -5.30645128752875  3.85196241834183
 1 -1.47685911241124 -5.84359853695369  2.94549125202520
 1  2.77156182728273 -1.63207289718972 -1.84929900620062
 1  2.65615731593159  0.49714263266327 -2.07405942574258
 1  4.51567079137914 -1.09529753595359  0.06699907610761
 1  3.64248518481848  2.06069716601660 -2.11976531883188
 1  5.07767106550655  2.98778316851685 -1.51339569416942
 1  5.46284160696070  1.62704303450345 -2.91668296759676
 1  6.89407243054305  1.70248647634764 -0.05918842114211
 1  6.30914426242624 -0.01228447734773  0.60478148524852
 1  7.28217195929593 -0.97735880758076 -1.40510463916392
 1  7.65691722272227  0.48445532203220 -2.01140128702870
 1  9.37394349154915  0.90197281378138  0.01538550105011
 1  8.59426724952495 -0.57038539393939  0.50998561716172
 1  10.40768247974798 -0.02648788248825 -1.92821665226523
 1  9.39433592999300 -2.42756980128013 -2.39259422062206
 1  11.11555464016402 -2.38157467006701 -1.96711289728973
 1  9.84134160776078 -2.83075469806981 -0.74591668236824
 1  11.36755151735173  0.89403381088109  0.04157612101210
 1  11.29440985068507 -0.98656099419942  0.73094056705671
 1  12.68141387708771 -1.54757161856186 -0.83481181608161
 1  12.86724563056306 -0.12309283028303 -1.87935629942994
 1  13.56663816701670  1.00181343684368  0.54479113961396
 1  13.81024711501150 -0.73194563186319  1.13838900860086
 1  15.52344473657366  0.44893475387539 -1.19306896639664
 1  15.38794079507951 -2.30618734463446  0.03585598799880
 1  14.82302983478348 -2.07627582118212 -1.66680440084008
 1  16.57514557315732 -1.70043397199720 -1.13790589938994
 1  16.06954216391639  1.69802887558756  0.81989541054105
 1  16.36102780478048 -0.02427882358236  1.50973390509051
 1  18.00348954085409 -0.49231619541954 -0.33059906750675
 1  17.71735181638164  0.94845610411041 -1.23863734763476
 1  18.54008269106911  2.37323922352235  0.81652675357536
 1  18.54424070147014  1.00425403670367  1.90790714231423
 1  20.46529659635963  0.03232966876688  0.28504625502550
 1  20.20474730803080  2.86958594349435 -0.99115938543854
 1  21.61726784068407  1.83842972087209 -1.33534478847885
 1  19.89009984318432  1.38964036633663 -1.88865928922892
 1  21.28119813511351  0.98599790359036  2.29210865246525
 1  22.33372801330133  1.59812834403440  1.18820308650865
 1  21.11193372597260  2.75082875907591  1.64512044324432

