%nproc=3
%Mem=2GB
# td=(NStates=10) iop(3/107=0140000000,3/108=0140000000) CAM-B3LYP/6-31G(d,p) 

TD

0 1
12 -7.25942761206121  0.53267150785078  0.17387543614361
 6 -4.85795467656766 -1.91237334863486  0.53549918481848
 6 -4.82842214851485  2.80741506880688  1.16019947714771
 6 -9.44468905770577  3.09453185258526 -0.30266159915992
 6 -9.52726375397540 -1.81191136613661 -0.81532964796480
 7 -5.12120490209021  0.42607386788679  0.81544906530653
 6 -4.37083468876888 -0.67653827422742  0.86336823962396
 6 -2.94232519371937 -0.39694496659666  1.27090253145315
 6 -3.08266855605561  1.07623875637564  1.68907171357136
 6 -4.32663074977498  1.49458983938394  1.06236249744975
 6 -3.07361515251525  1.17454394169417  3.35681920802080
 6 -1.95603988488849 -0.56936094619462  0.03930325612561
 6 -0.52389064306431 -0.26972520392039  0.42016059895990
 6  0.49238861726173 -0.58167159925993 -0.76436808860886
 8  0.15917646734673 -0.93166457025703 -1.86284556485649
 8  1.76422344734473 -0.46296120292029 -0.30899511961196
 7 -7.20564817331733  2.65738714601460  0.37076223302330
 6 -6.06336346734673  3.30731168506851  0.75687367136714
 6 -6.47912590229023  4.83806443684368  0.78085585008501
 6 -7.76429702510251  4.83823371007101  0.28620552755276
 6 -8.17055760896089  3.49429972127213  0.17499783898390
 6 -5.67905368656866  5.90415150645064  1.38002452765277
 6 -8.56258547094709  5.99005407340734  0.27245726762676
 6 -8.21259045684568  7.25592167646765 -0.07635189748975
 7 -9.24216925262526  0.56552303060306 -0.38454015931593
 6 -9.94413607260726  1.78311899449945 -0.46515163936394
 6 -11.27120186308631  1.40248123852385 -1.00727547714771
 6 -11.31015953665366  0.02628650595059 -1.15371463766377
 6 -9.94239412311231 -0.41498998709871 -0.76684598749875
 6 -12.34493273537354  2.34428670957096 -1.31991252215222
 6 -12.44564461016102 -0.84122518471847 -1.85143032023202
 6 -12.10521685368537 -1.24490837603760 -3.32776088148815
 7 -7.28143439553955 -1.48667802940294 -0.13607672637264
 6 -8.25982120442044 -2.26590252975298 -0.46385419131913
 6 -7.81295896339634 -3.70831501440144 -0.41636006500650
 6 -6.48809433143314 -3.58674298979898 -0.02361485358536
 6 -6.20201497969797 -2.22550870537054  0.20750237163716
 6 -8.63348369306931 -4.89800261916192 -0.81682122912291
 6 -5.30069660736074 -4.39706569186919  0.19264776467647
 8 -5.19288064986499 -5.57527018061806  0.12494852965297
 6 -4.12776618661866 -3.28794172827283  0.55120601260126
 6 -3.48427279147915 -3.69210529512951  1.78196937663766
 8 -3.67362101670167 -3.19802303510351  2.92377609290929
 8 -2.63545489338934 -4.73118127062706  1.77117520552055
 6 -1.90647328582858 -5.02640310961096  2.88345968296830
 6  2.78845262186219 -0.39759901760176 -1.41378675357536
 6  4.10639396179618 -0.35069891929193 -0.68394092279228
 6  5.14412802020202  0.45961928642864 -0.98435833603360
 6  5.15497291389139  1.41811634793479 -2.25386247734773
 6  6.36939339693969  0.43542234913491 -0.13322000820082
 6  7.64796253515351  0.07683580168017 -0.95378504720472
 6  8.92260134253425  0.01998226472647 -0.16075867006701
 6  10.21002189518952 -0.31238833713371 -1.01837823222322
 6  10.19033621982198 -1.80120945584558 -1.40901256275628
 6  11.44225534263426 -0.07221811241124 -0.01869167046705
 6  12.83370053905390 -0.51502801870187 -0.75619615941594
 6  13.96317200500050 -0.19591635483548  0.16890410341034
 6  15.33751909590959 -0.26831944364436 -0.50030308060806
 6  15.53564766696670 -1.69528231403140 -0.90102738253825
 6  16.45675892989299  0.29287367346735  0.44925411011101
 6  17.91148685298530  0.40506863266327 -0.09917819771977
 6  18.89195459495950  1.09647149394940  0.80560292199220
 6  20.40881856165617  1.14135988058806  0.32201180478048
 6  20.42350257915792  1.95342099009901 -0.95915173657366
 6  21.22202007610761  1.66165053445345  1.41319802140214
 1 -4.10639089758976  3.56228461016102  1.66059058005801
 1 -10.32546629832983  3.90494807870787 -0.44138844144414
 1 -10.26804606640664 -2.44493454815482 -1.36039958745875
 1 -2.81871056175618 -1.05578524222422  2.02272951155115
 1 -2.37933757175718  1.58929741834183  1.09918428492849
 1 -2.06611033433343  1.05870135913591  3.80961117451745
 1 -3.45848063426343  2.27211666826683  3.71246581408141
 1 -3.79164014521452  0.52449681738174  3.69180306480648
 1 -1.90210273717372 -1.51060698109811 -0.54438942494249
 1 -2.36192039423942  0.28517060836084 -0.63624872647265
 1 -0.16043313731373  0.69426735023502  0.56366861876188
 1  0.01622566886689 -0.81549452485249  1.29216209210921
 1 -4.99818198589859  6.40683585868587  0.66690847304730
 1 -6.50349501980198  6.73788358715872  1.55367005620562
 1 -5.05100832963296  5.36474164556456  2.26736041474147
 1 -9.65679317821782  5.78119105520552  0.55062290679068
 1 -8.88574921532153  8.03609219871987 -0.14698410511051
 1 -7.24482951955196  7.64515508470847 -0.23997846844684
 1 -12.21618703150315  3.07368467376738 -2.15796209460946
 1 -13.44266948044804  1.92456809490949 -1.41698522222222
 1 -12.57780474187419  3.18478156355636 -0.51418291629163
 1 -12.53282581068107 -1.76626902510251 -1.09125933383338
 1 -13.35129113271327 -0.35953976697670 -1.76590394739474
 1 -12.63168363456346 -2.03388462766277 -3.58073107080708
 1 -12.14612478647865 -0.35168389428943 -3.94938251325133
 1 -11.07210055765577 -1.67207015101510 -3.20580969646965
 1 -9.10034092999300 -4.88206105440544 -1.87188476987699
 1 -8.03938763976398 -5.81668177637764 -0.35168939703970
 1 -9.45919808560856 -4.76888367536754 -0.26283453965397
 1 -3.50774090609061 -3.44979656415642 -0.20105675867587
 1 -1.40502159215922 -4.03763214051405  3.32410909790979
 1 -2.64727991539154 -5.49341998439844  3.69313653575357
 1 -0.97009843634363 -5.62070624772477  2.79325602850285
 1  2.55969064016402 -1.25566525642564 -2.00026410271027
 1  2.67241894209421  0.51326424482448 -2.11813383318332
 1  4.41381060536054 -0.97872587878788  0.12711508770877
 1  4.15560649694969  1.63836493279328 -2.76093943624362
 1  5.54683798219822  2.42799718991899 -1.80995535013501
 1  5.94491981478148  1.04252458265827 -2.97642894219422
 1  6.55568859215922  1.46905313301330  0.02311980968097
 1  6.18341168916892 -0.07262051095109  0.62540354745475
 1  7.31556529862986 -0.97356842854285 -1.25635976467647
 1  7.68782031303130  0.56840371687169 -1.80094024092409
 1  9.07244334153415  0.98320093659366  0.41798576107611
 1  8.92466028882888 -0.37690604600460  0.82468708730873
 1  10.30884259575958  0.51920668696870 -1.77016084668467
 1  9.36391288768877 -2.11661870617062 -1.98093305450545
 1  11.06851993669367 -1.84305081768177 -2.24553073907391
 1  10.50683815741574 -2.33189481208121 -0.49191128182818
 1  11.55719048124812  0.89041344884488  0.25755771917192
 1  11.46568697839784 -0.47935027312731  0.96933440644064
 1  12.79882561826183 -1.60057691909191 -1.13859219411941
 1  12.83465237123712 -0.04472499349935 -1.56785514931493
 1  13.74720622382238  0.96102935843584  0.46747340784078
 1  13.81814790509051 -0.86988942624262  0.98553372307231
 1  15.33156554865486  0.48194805520552 -1.31349100860086
 1  15.41350335133513 -2.52176890279028  0.06114851725173
 1  14.85590312211221 -2.08908710231023 -1.68550627102710
 1  16.58407646624662 -1.73978790739074 -1.16819892869287
 1  16.06387159685968  1.28462753545355  0.86931035203520
 1  16.53655535753575 -0.41914831053105  1.35095802750275
 1  18.23239243114311 -0.50152711651165 -0.45322132973297
 1  17.72676275747575  0.99396065456546 -1.01517500140014
 1  18.57645632843284  2.23221512111211  1.11132623352335
 1  18.83923020042004  0.46405001630163  1.68313466506651
 1  20.33959402610261 -0.04971853605360 -0.05048729832983
 1  19.96045287858786  2.97100608550855 -0.67501777127713
 1  21.48365447934793  2.06900277817782 -1.36630788478848
 1  19.84315514871487  1.61559296159616 -1.75670609390939
 1  21.21613162846285  1.04453375717572  2.30068951055105
 1  22.23089773027303  1.59584811601160  1.11034530073007
 1  20.94509704230423  2.72374605080508  1.78121405260526

