%nproc=3
%Mem=2GB
# td=(NStates=10) iop(3/107=0140000000,3/108=0140000000) CAM-B3LYP/6-31G(d,p) 

TD

0 1
12 -7.10776244554455  0.54977321802180  0.14204225282528
 6 -4.87373625472547 -2.08812092339234  0.49011464636464
 6 -4.73931323762376  2.84142847014701  1.15770922812281
 6 -9.34384897369737  3.06837923732373 -0.35055638863886
 6 -9.47252828042804 -1.72911308630863 -0.76939505450545
 7 -5.11829461106111  0.37801906240624  0.83131065146515
 6 -4.38482608790879 -0.81947256765677  0.77811971477148
 6 -2.94029499069907 -0.42691796389639  1.27333277447745
 6 -3.10103039223922  1.01940307280728  1.81208401480148
 6 -4.35658374507451  1.44642502290229  1.19117537873787
 6 -2.99112690369037  1.14158064536454  3.32685621172117
 6 -1.94954923582358 -0.67353136323632  0.14042336813681
 6 -0.53613186718672 -0.59807803920392  0.56947553045305
 6  0.45106448484848 -0.69050248234823 -0.68052970477048
 8  0.10127067676768 -0.89779118291829 -1.84852413271327
 8  1.64316134113411 -0.45046995379538 -0.25330955105511
 7 -7.08029563806381  2.68581998929893  0.30473563036304
 6 -6.06084321532153  3.37657861176118  0.76215419941994
 6 -6.42467045674567  4.75343597399740  0.84498226272627
 6 -7.67084768016802  4.80710059675968  0.45403231023102
 6 -8.18260881408141  3.43087337863786  0.11138147734773
 6 -5.44957073827383  5.82829392069207  1.16368289348935
 6 -8.56977619001900  6.02360742874287  0.30491051295130
 6 -8.12509170697070  7.19396548084809 -0.19442370467047
 7 -9.03661869756976  0.67894437273727 -0.43476518181818
 6 -9.81567322632263  1.84814549714972 -0.62422754695470
 6 -11.18805354825483  1.47315830623062 -1.07318206780678
 6 -11.21769028972897  0.07896177347735 -1.21786105230523
 6 -9.85999588328833 -0.35429391749175 -0.82036133903390
 6 -12.23990223232323  2.46067834873487 -1.35332586348635
 6 -12.34757480318032 -0.78463952615262 -1.64779995719572
 6 -12.30081641364136 -1.02701658685869 -3.12747085248525
 7 -7.26967321942194 -1.39646900850085 -0.13486660536054
 6 -8.20759598189819 -2.14083002250225 -0.52584038993899
 6 -7.82619028652865 -3.58104228712871 -0.52187061606161
 6 -6.55888141014101 -3.54620893639364 -0.13533602570257
 6 -6.19928470667067 -2.14798095259526  0.13173479487949
 6 -8.68479882458246 -4.67645046394639 -0.79163871087109
 6 -5.33220975867587 -4.27558354365437  0.21247974787479
 8 -5.23554491629163 -5.51917457105711  0.16059209400940
 6 -4.20347375737574 -3.41135406950695  0.49534042604260
 6 -3.52779714391439 -3.75056114071407  1.85317649734974
 8 -3.72058571317132 -3.30044327712771  2.92402611791179
 8 -2.59368071597160 -4.68223637613761  1.61917000500050
 6 -1.95151779027903 -5.19266973627363  2.75461679867987
 6  2.76849062566257 -0.55069432713271 -1.28089346424642
 6  4.12549587198720 -0.31108495789579 -0.66818934763476
 6  5.10225383278328  0.44499782428243 -1.02824272447245
 6  5.02971038763876  1.35480001630163 -2.26397348844884
 6  6.37871432903290  0.47587639453945 -0.19109579577958
 6  7.52954069296930 -0.21429331123112 -0.97140680938094
 6  8.87837692009201 -0.17212694619462 -0.10239283348335
 6  10.15037593059306 -0.62997009530953 -0.76141253565357
 6  10.07438462466247 -2.15033436833683 -1.02878453995400
 6  11.42656377347735 -0.34818570917092  0.10455065376538
 6  12.70673784278428 -0.56671318721872 -0.65648618841884
 6  13.92482817061706 -0.06311307450745  0.12569978297830
 6  15.37329267326733 -0.15064767646765 -0.53331638193819
 6  15.68670277247725 -1.53932671847185 -1.06044332413241
 6  16.45818907290729  0.38561294739474  0.47414659935994
 6  17.80607631193119  0.68493661946195 -0.20741902180218
 6  18.73578897839784  1.28795064186419  0.73765612731273
 6  20.10123780358036  1.39395514011401  0.23124272787279
 6  20.37917814671467  2.21245689368937 -0.97860368176818
 6  21.13654152825283  1.88187255665567  1.29456615821582
 1 -3.91322158065807  3.39965834753475  1.47971249224922
 1 -9.94633838553855  3.97644522842284 -0.57229153175317
 1 -10.17548681048105 -2.56568662336234 -1.15743929142914
 1 -2.71251994269427 -1.12476213991399  2.11329856845685
 1 -2.30528016601660  1.66593508210821  1.44641900840084
 1 -2.02970669396940  0.90578606760676  3.79249946334633
 1 -3.27444223042304  2.12386184278428  3.74775934343434
 1 -3.70844182538254  0.48258262596260  3.76919080358036
 1 -2.20558308520852 -1.68123404380438 -0.23884887088709
 1 -1.89988419061906 -0.18166607530753 -0.81607670927093
 1 -0.19725681968197  0.28675659915992  1.24985723762376
 1 -0.21133708740874 -1.26991996739674  1.33953682958296
 1 -4.93181534923492  6.09530470557056  0.18614039623962
 1 -5.94941961226123  6.80116991579158  1.44626931613161
 1 -4.82063529232923  5.38833400480048  1.90671435013501
 1 -9.62082958185819  5.95333826992699  0.47731557605761
 1 -8.71372201260126  8.09812840234023 -0.32652205890589
 1 -7.17555259185919  7.43212378157816 -0.39828429902990
 1 -12.06424183698370  3.11524883018302 -2.52442874127413
 1 -13.24035924942494  2.01272691079108 -1.33748727242724
 1 -12.03885084648465  3.28367145254526 -0.53742524052405
 1 -12.43322585068507 -1.70742314051405 -1.23307351525152
 1 -13.30680668426843 -0.08564237723772 -1.69874723172317
 1 -12.97202766896690 -1.72763400260026 -3.69518251595159
 1 -12.50590076407641  0.05144641874187 -3.66224379937994
 1 -11.25993934153415 -1.42569551355136 -3.57883699919992
 1 -9.47050794669467 -4.16803965226523 -1.68273585498550
 1 -8.19052275327533 -5.48530863906391 -1.10930515861586
 1 -9.55613777957796 -5.07530431743174  0.03199494329433
 1 -3.36260639263926 -3.47531911641164 -0.15336198919892
 1 -1.20036112611261 -4.55315369266927  3.18268495549555
 1 -2.70084527192719 -5.31879252165217  3.55696291839184
 1 -1.38945037153715 -6.11395557265727  2.65684238713871
 1  2.68523319441944 -1.61401109100910 -1.70895497179718
 1  2.51013271347135  0.07458037643764 -2.00788280808081
 1  4.01078030233023 -0.96965497169717  0.18359073527353
 1  4.19944088038804  1.24112520882088 -2.78725206750675
 1  5.61888518691869  2.24290868106811 -1.98069242384238
 1  5.80807613041304  0.95335566576658 -2.91388268756876
 1  6.40042306560656  1.55158138583858  0.14318181588159
 1  6.28279162716272  0.05831258235824  0.88808981608161
 1  7.26826056815682 -1.24199527122712 -1.14658878757876
 1  7.74550608160816  0.20759763626363 -1.84881502840284
 1  8.96733283048305  0.91228384488449  0.13975793829383
 1  8.67688551135113 -0.68671702710271  0.78448306690669
 1  10.29201091259126 -0.18903413711371 -1.98939276987699
 1  9.29955645204520 -2.27969501380138 -1.83779874107411
 1  10.97633071777178 -2.75700221282128 -1.59082526852685
 1  9.74636210981098 -2.73390501310131 -0.20329241994199
 1  11.50996575877588  0.82359676717672  0.22892485588559
 1  11.44798520822082 -1.20859319741974  0.91170864386439
 1  12.75666140184018 -1.55532239363936 -0.99801813671367
 1  12.62287119311931  0.14207368636864 -1.50931929572957
 1  13.83145464866487  0.95928918441844  0.44768142864286
 1  14.07256334663466 -0.51527396469647  1.21607677737774
 1  15.40226261836184  0.39308916931693 -1.47928758825883
 1  15.62938493949395 -2.51054778067807 -0.46689428702870
 1  14.86019355115512 -1.67212540614061 -1.89165688608861
 1  16.63450150875088 -1.64787871647165 -1.55524763356336
 1  16.07619282898290  1.42253132583258  0.76918033903390
 1  16.48529023102310 -0.14243063876388  1.33279621132113
 1  18.26782597449745 -0.36603356715672 -0.38932494009401
 1  17.63195327652765  0.88280953945395 -1.18046153005301
 1  18.37112579537954  2.36253815341534  1.04338943984398
 1  18.77383366076608  0.75591920322032  1.69955630723072
 1  20.36188625532553  0.45335177097710  0.09655740614061
 1  19.95889272257226  3.27883686858686 -0.84663493299330
 1  21.56610272417242  2.49496537443744 -1.12031328532853
 1  19.82289312251225  1.90864226652665 -1.77863828712871
 1  21.15761577687769  1.38493779757976  2.20251969356936
 1  22.27256189668967  1.78283681488149  0.99556382258226
 1  20.94762729532953  3.10865454165417  1.52460839203920

