%nproc=3
%Mem=2GB
# td=(NStates=10) iop(3/107=0140000000,3/108=0140000000) CAM-B3LYP/6-31G(d,p) 

TD

0 1
12 -7.17419908920892  0.61438967966797  0.11930997959796
 6 -4.87932681378138 -1.97138925022502  0.49742537743774
 6 -4.81258056435644  2.71935626292629  1.10836429362936
 6 -9.33299788858886  3.06444884428443 -0.37287862086209
 6 -9.53240426802680 -1.77276745174517 -0.89635775077508
 7 -5.06163894549455  0.46307756825683  0.68313583398340
 6 -4.36238384368437 -0.71606222662266  0.75398730153015
 6 -2.85686664786479 -0.42732800490049  1.22010745194519
 6 -3.02598288748875  0.97176830933093  1.71819462586259
 6 -4.31135922262226  1.36486686708671  1.04690095129513
 6 -2.87317510851085  1.25218170547055  3.13873739983998
 6 -1.90846512741274 -0.65872988308831 -0.00030070427043
 6 -0.48869712371237 -0.51240947234723  0.48503708660866
 6  0.48290766916692 -0.66588002010201 -0.64167581938194
 8  0.21697224692469 -1.17999940374037 -1.75757503780378
 8  1.81259828482848 -0.34595950275028 -0.29264348444844
 7 -7.06959456795680  2.58834024132413  0.41270642744274
 6 -5.99723685468547  3.27494844874487  0.78239622362236
 6 -6.35562355205521  4.73279390979098  0.90631839633963
 6 -7.66015661106111  4.83608349504951  0.43981088808881
 6 -8.08354890809081  3.51310160146015  0.14310464966497
 6 -5.37497327852785  5.78258935023502  1.33664018921892
 6 -8.46717592999300  6.05812088008801  0.23278330023002
 6 -8.17638683648365  7.29184526882688  0.03825956365637
 7 -9.08893392909291  0.62058853715372 -0.52133383868387
 6 -9.85458711771177  1.83491417401740 -0.60414553875388
 6 -11.13690843374338  1.51064205460546 -1.06723147274727
 6 -11.14788330903090  0.05486936423642 -1.23307257345735
 6 -9.93432331603160 -0.35361384948495 -0.80513981688169
 6 -12.25744398649865  2.49254153505351 -1.31097162806281
 6 -12.37248729442944 -0.74715577777778 -1.56895207240724
 6 -12.46371270327033 -1.17463134833483 -3.04184228962896
 7 -7.23876012811281 -1.38786814841484 -0.09026214491449
 6 -8.24407963026303 -2.29341528102810 -0.62696050195020
 6 -7.83884155165517 -3.69339352225222 -0.54701313031303
 6 -6.51100662266227 -3.53991830733073 -0.19266175827583
 6 -6.18138291649165 -2.13428958345835  0.04557617901790
 6 -8.65773611831183 -4.88058087698770 -0.78975852285229
 6 -5.30581711941194 -4.45373135843584  0.26032453235324
 8 -5.21659302110211 -5.55138779237924  0.23044907970797
 6 -4.14855826582658 -3.29294222832283  0.58184907690769
 6 -3.45230959515952 -3.64456054065407  1.79447062676268
 8 -3.63891754635464 -3.07912114491449  2.92965668096810
 8 -2.61566291419142 -4.70670882338234  1.73909199719972
 6 -1.97269990849085 -5.36082655195520  2.91550288728873
 6  2.81135491209121 -0.56726598429843 -1.34253962886289
 6  4.12354567696770 -0.33879772917292 -0.52508503720372
 6  5.12562617001700  0.41990531503150 -1.04428432863286
 6  5.02953036963696  1.30164470077008 -2.30344743584358
 6  6.37145360296030  0.62189099599960 -0.33334002020202
 6  7.65138287718772 -0.01138302020202 -0.97892756145615
 6  8.85435451785179  0.10120038653865 -0.18270086428643
 6  10.13245413841384 -0.38792589088909 -0.94092048644864
 6  9.99968715491549 -1.83750308520852 -1.37752941444144
 6  11.35494661176118 -0.16468735933593 -0.00358015931593
 6  12.70794796379638 -0.34121063696370 -0.63321386118612
 6  13.82132782058206 -0.10699746294629  0.30291750475048
 6  15.29865520952095 -0.19926253795380 -0.41478452875288
 6  15.58685278747875 -1.66400918671867 -0.77063434323432
 6  16.28667192119212  0.39556394249425  0.47888707340734
 6  17.63254895919592  0.51240936673667 -0.05342362226223
 6  18.71187658715872  1.14091593839384  0.74700706240624
 6  20.12237991779178  1.22305805040504  0.17177678127813
 6  20.30020024892489  2.01894754275428 -0.95256107750775
 6  21.10543841794179  1.76395076447645  1.32246894849485
 1 -3.87076733523352  3.39203758545855  1.32414693569357
 1 -9.96111986368637  3.86329391329133 -0.76863116571657
 1 -10.12860212201220 -2.58248830353035 -1.25728927642764
 1 -2.76278496919692 -1.07416708040804  2.11978921752175
 1 -2.18536817481748  1.74385287388739  1.35864023052305
 1 -1.75456918021802  1.20095558455846  3.54975518891889
 1 -3.40540532673267  2.35218467506751  3.49541410891089
 1 -3.31424240544054  0.36446081378138  3.88524240874087
 1 -2.24754728162816 -1.65094101450145 -0.43404839083908
 1 -2.26843104530453 -0.33575148384838 -0.90628573017302
 1 -0.27227432143214  0.54541246474647  1.06683893579358
 1 -0.23545949964997 -1.07232020742074  1.25840871677168
 1 -4.67612978067807  6.15585076017602  0.38647042924292
 1 -5.97481215151515  6.69222902170217  1.64676936613661
 1 -4.66390961976198  5.42758793019302  2.09992367106711
 1 -9.60906840574057  5.83824676077608  0.12406025052505
 1 -8.86645728612861  8.07690628012801  0.10579117241724
 1 -7.08197323392339  7.74701527072707  0.24667019641964
 1 -11.97763317611761  3.15261256655666 -2.15647194559456
 1 -13.23979919341934  1.89314495259526 -1.34961848554855
 1 -12.45764272567257  3.10853393879388 -0.24278577657766
 1 -12.48859138723872 -1.53174557275728 -0.86861706960696
 1 -13.28783478707871 -0.31104491749175 -1.29373673067307
 1 -13.18730919711971 -2.05607684688469 -3.00239323702370
 1 -12.81379155315532 -0.38563728962896 -3.73481105610561
 1 -11.74307765536554 -1.74021696569657 -3.37611672717272
 1 -9.33055395129513 -4.82491533983398 -1.69518710011001
 1 -7.98248194919492 -5.69226933513351 -0.84944917301730
 1 -9.28674083988399 -4.96521330833083  0.13044478827883
 1 -3.48149828182818 -3.42989457395740 -0.34655130813081
 1 -1.44612570257026 -4.68177655495550  3.57860454745474
 1 -2.80454564196420 -5.80071071347135  3.38379560166017
 1 -1.28986041254125 -6.01820599769977  2.52508921182118
 1  2.72373704480448 -1.58835852575258 -1.59581365766577
 1  2.77402910311031  0.04946786518652 -2.11942396219622
 1  4.13392261656166 -0.74317232343234  0.44760713691369
 1  4.09298023432343  1.42936403270327 -2.90381372367237
 1  5.25302860126013  2.18745313551355 -1.89402375697570
 1  5.82416773957396  0.97759809000900 -2.96277757705771
 1  6.48594161746175  1.58100432813281 -0.28919142144214
 1  6.19379272727273  0.18263501460146  0.77868887598760
 1  7.28776251835184 -1.06558763046305 -1.19412354105411
 1  7.63430496149615  0.38881575807581 -1.98668881578158
 1  8.95980207740774  1.19530214671467  0.12692665516552
 1  8.63336115891589 -0.65505386078608  0.62621724032403
 1  10.33810552205221  0.31413617991799 -1.72425625622562
 1  9.00928742514252 -2.03611065536554 -1.84333929512951
 1  10.85137822252225 -2.24955146774677 -1.97999418541854
 1  9.97531500510051 -2.47769939253925 -0.55604769546955
 1  11.41171593379338  0.98143255075508  0.15122708610861
 1  11.41551196089609 -0.86631896999700  0.80406787978798
 1  12.70956669236924 -1.31165802720272 -0.92139047394739
 1  12.63713261926193  0.15786526552655 -1.55226359015902
 1  13.71640314351435  1.03868712421242  0.77899455995600
 1  13.72298838913891 -0.96646908420842  1.17238240794079
 1  15.24594698679868  0.55079493989399 -1.24967462696270
 1  15.55085708670867 -2.27959468536854  0.02649505190519
 1  15.01484901670167 -2.26785497909791 -1.47285500590059
 1  16.55831388998900 -1.77207113571357 -1.54644675347535
 1  15.68870408010801  1.37789686238624  0.75296871787179
 1  16.53974567656766 -0.14320071577158  1.42583551525153
 1  17.91623081498150 -0.61827879167917 -0.18887489508951
 1  17.68107818901890  1.07775903440344 -1.14483796769677
 1  18.32155083788379  2.29085098469847  0.92641774267427
 1  18.78849512691269  0.66833044434443  1.66607295889589
 1  20.41237130383038  0.24990142594259 -0.04646689628963
 1  20.46456328962896  3.09398838373837 -0.53682395189519
 1  21.33355946984699  1.65428130603060 -1.34660591459146
 1  19.54718555175517  1.93052445474548 -1.76473689698970
 1  21.00723073837384  1.35073437723772  2.43923336493649
 1  22.18709334983498  1.41337986918692  0.91630589678968
 1  20.83615614821482  2.90625430163016  1.56301223242324

