%nproc=3
%Mem=2GB
# td=(NStates=10) iop(3/107=0140000000,3/108=0140000000) CAM-B3LYP/6-31G(d,p) 

TD

0 1
12 -7.20644231353135  0.61876011671167  0.06007405600560
 6 -4.81558043914391 -1.89923203450345  0.45483111801180
 6 -4.83106241254125  2.74531885918592  1.30003346054605
 6 -9.51316590539054  3.21363376277628 -0.33262459545955
 6 -9.50243127072707 -1.78133830883088 -0.93435155015502
 7 -5.08544132573257  0.45492675317532  0.69430695109511
 6 -4.41845945124512 -0.69170979137914  0.80780268306831
 6 -2.91477243844384 -0.38457372947295  1.22945838703870
 6 -3.00246053525353  1.00902203470347  1.78897170357036
 6 -4.40072815951595  1.53198357875788  1.24163042424242
 6 -2.92388017901790  1.17246373367337  3.30425395149515
 6 -1.91693597449745 -0.67021103120312  0.03116244204420
 6 -0.48424667866787 -0.47690592199220  0.53917250015002
 6  0.50928030643064 -0.72931636373637 -0.61341299309931
 8  0.24482503220322 -1.01227263106311 -1.70076935723572
 8  1.79347637263726 -0.47769267606761 -0.07594181428143
 7 -7.13125073357336  2.64048545584558  0.39766492329233
 6 -6.02909004000400  3.32293324722472  0.88550653465347
 6 -6.51683967366737  4.78099873027303  0.93728149264926
 6 -7.84947554295429  4.77685757245725  0.49374628162816
 6 -8.13199375257526  3.45258554985499  0.12906324552455
 6 -5.58347412861286  5.87210830213021  1.37599412461246
 6 -8.62000121252125  5.96724179217922  0.42856287818782
 6 -8.25514471227123  7.23544962926293 -0.04374863716372
 7 -9.12569760546055  0.74026050435044 -0.44975668096810
 6 -9.89721138013801  1.83101378397840 -0.68365348954896
 6 -11.32738748164816  1.49707069746975 -1.23303805340534
 6 -11.27120564126413  0.10046392369237 -1.38230749694969
 6 -9.93909379307931 -0.40579906800680 -0.90450975387539
 6 -12.42185042714272  2.38168044894489 -1.55793632453245
 6 -12.31385143084308 -0.78957001920192 -1.79645482268227
 6 -12.27696402840284 -1.11753563876388 -3.35172327772777
 7 -7.24261051315132 -1.39468883048305 -0.22292541124112
 6 -8.23842906520652 -2.29124506400640 -0.60948875477548
 6 -7.82191985948595 -3.61846602950295 -0.63811224022402
 6 -6.51799732173217 -3.50540485598560 -0.11804429652965
 6 -6.17302208040804 -2.13456961146115  0.02041366276628
 6 -8.68479882458246 -4.84237705660566 -0.91856140314031
 6 -5.35023156085609 -4.32235822112211  0.18509700960096
 8 -5.11072243404340 -5.57107976157616  0.21505754055406
 6 -4.18866227622762 -3.34533746784678  0.54641553355336
 6 -3.61948631283128 -3.64449053365337  1.87280846054605
 8 -3.72680633523352 -3.07180041284128  2.99506322162216
 8 -2.73819516741674 -4.65159331183118  1.74669275727573
 6 -2.11702434093409 -5.06479694899490  2.94717605460546
 6  2.90128390499050 -0.69687894559456 -1.17655303020302
 6  4.12113543594359 -0.47196104550455 -0.42987551625163
 6  5.19749335673567  0.34319764426443 -0.86961686188619
 6  5.21550896749675  1.08537307360736 -2.05676276737674
 6  6.45877233483348  0.41382018891889 -0.01054774097410
 6  7.68370610951095 -0.12927480938094 -0.65449511821182
 6  8.99633871627163 -0.12606233973397  0.15077248304830
 6  10.17284817781778 -0.41574867316732 -0.76053244764476
 6  10.13048023422342 -1.93168250315032 -1.29044070557056
 6  11.48093921102110 -0.20599148974897 -0.00126992829283
 6  12.77783495249525 -0.49217573347335 -0.76492703250325
 6  14.00948663646365 -0.06892365556556  0.15134234723472
 6  15.41992733673367 -0.15066767846785 -0.55001805210521
 6  15.73125722792279 -1.53171595739574 -0.95289256905691
 6  16.44527778177818  0.43614800090009  0.39371855655566
 6  17.79746545084508  0.63337146294629 -0.35163344324432
 6  18.84801020052005  1.14889673647365  0.57999036073607
 6  20.33411109090909  1.22471821642164  0.09709931353135
 6  20.25494572347235  2.22382803080308 -1.20286610801080
 6  21.22881075517552  1.70781515091509  1.18538524012401
 1 -4.26048630713071  3.48438682038204  1.91831635263526
 1 -10.36883063476348  3.87183476737674 -0.29090339293929
 1 -10.37611687348735 -2.58882893759376 -1.06822036953695
 1 -2.69602829352935 -1.20864052775278  1.91666890549055
 1 -2.35979561756176  1.70038852745275  1.35388975547555
 1 -2.04477820112011  0.94537002600260  3.49049926332633
 1 -3.25409019521952  2.27926738333833  3.60731529902990
 1 -3.47276825802580  0.25662002970297  3.67609149364936
 1 -2.21806433333333 -1.51976789718972 -0.43498848484849
 1 -2.15307951015102  0.16735882718272 -0.83592869446945
 1 -0.42142923692369  0.52890081358136  1.11745399729973
 1 -0.11183713741374 -1.01830480588059  1.31020389628963
 1 -4.99423159085909  6.06960213531353  0.60438222042204
 1 -6.18464313461346  6.74597439623962  1.57478216741674
 1 -5.17569079787979  5.60176534793479  2.29533321202120
 1 -9.61836933583358  5.68166110221022  0.67091493599360
 1 -9.05972661306131  7.98745733523352 -0.30932033873387
 1 -7.12092712931293  7.31639220842084 -0.38454292489249
 1 -12.27238265106511  3.10310761606161 -2.40955725412541
 1 -13.25034024752475  1.69784542264226 -1.98576209990999
 1 -12.55427238863886  2.99871295669567 -0.70629212721272
 1 -12.41444397249725 -1.75292769096910 -1.18193840174017
 1 -13.30773677727773 -0.34175798879888 -1.55361271827183
 1 -13.23316378257826 -1.64749598879888 -3.65352835053505
 1 -12.11873204720472 -0.08977770367037 -3.74472204720472
 1 -11.44347769536954 -1.78640158415842 -3.47676679217922
 1 -9.38169906580658 -4.63324617291729 -1.88517609900990
 1 -7.91939564056406 -5.75759586778678 -1.20072430053005
 1 -9.33677584338434 -4.93121990899090  0.09181092489249
 1 -3.34370450245025 -3.35508709320932 -0.19448610161016
 1 -1.38905999599960 -4.23463184048405  3.37853454045404
 1 -3.06989217661766 -5.11908255065507  3.72549977207721
 1 -1.75077650415042 -5.98615279237924  2.75675237813781
 1  2.63196786788679 -1.84642433233323 -1.33975805210521
 1  2.60513221342134 -0.08077515911591 -2.05504752455246
 1  4.26696592089209 -0.88451645784578  0.48203057925793
 1  4.24314525082508  1.08753985028503 -2.48726206850685
 1  5.57775107350735  1.93594798499850 -1.76498085268527
 1  5.92573789658966  0.57173750395039 -2.78361966126613
 1  6.54427745104510  1.55071129882988  0.18566606430643
 1  6.09915326332633 -0.10545379427943  0.99787079417942
 1  7.35766950905091 -1.14881595329533 -0.95734986368637
 1  7.79685121612161  0.23046992349235 -1.69019916681668
 1  8.95122121932193  0.89343195969597  0.67843180568057
 1  8.80741856465647 -0.89130748614861  1.03580819941994
 1  10.18852056355636  0.36835160146015 -1.58638246884688
 1  9.13130962736274 -2.11504854915492 -1.97245220642064
 1  11.10821390609061 -1.90306681928193 -1.97104329032903
 1  10.11749922352235 -2.64439606220622 -0.51604369506951
 1  11.40467522972297  0.78136254375438  0.48687065046505
 1  11.58557896759676 -1.12976531463146  0.66912438543854
 1  12.92404814051405 -1.48087494889489 -1.12823115801580
 1  12.77279618561856  0.26335581458146 -1.58145650945094
 1  13.80355185838584  1.03700695619562  0.38895555605561
 1  14.01967805810581 -0.68765120242024  1.10227539723972
 1  15.28567095919592  0.34299415981598 -1.53993365286529
 1  15.97365936693669 -2.24284101000100 -0.20592819041904
 1  14.81433896569657 -1.94545273887389 -1.58206592699270
 1  16.46176423502351 -1.73514744334433 -1.65926803560356
 1  16.09469467916792  1.36523559625963  0.58802222322232
 1  16.48710041204120 -0.26783317901790  1.30839377107711
 1  17.93636282818282 -0.43209017281728 -0.75484149174918
 1  17.59571965316532  1.25965722422242 -1.25216870077008
 1  18.62685136793679  2.15410731033103  1.00958605950595
 1  18.93154943234323  0.39381299259926  1.53984033563356
 1  20.42301236793679  0.07252368816882 -0.37805005460546
 1  19.79521635493549  3.25804478937894 -0.71755202470247
 1  21.19579569346935  2.59080495839584 -1.81590284428443
 1  19.61430226342634  1.71741314361436 -1.75819624292429
 1  21.11980199549955  0.98858816261626  1.94537397899790
 1  22.31842648314831  1.77279581078108  0.84943921012101
 1  20.78785131773177  2.69910358655866  1.37508343954395

