%nproc=3
%Mem=2GB
# td=(NStates=10) iop(3/107=0140000000,3/108=0140000000) CAM-B3LYP/6-31G(d,p) 

TD

0 1
12 -7.08399006830683  0.61307954865487 -0.04629658105811
 6 -4.91689057015702 -2.05317742904290  0.55310094499450
 6 -4.77359666596660  2.84500882818282  1.20847430463046
 6 -9.43373796259626  3.13976637603760 -0.47767910091009
 6 -9.54429545714572 -1.68946912191219 -0.95341345634563
 7 -5.10474325592559  0.40105136563656  0.73892141254125
 6 -4.41535914121412 -0.70782140254025  0.79559146194619
 6 -2.90996195739574 -0.50532580468047  1.22771821302130
 6 -3.03015330453045  1.02935406790679  1.73827663406341
 6 -4.48900698739874  1.49643002340234  1.14190045124512
 6 -2.93224101510151  1.07820430773077  3.27963148924893
 6 -1.86326060696070 -0.57207121722172  0.01993131893189
 6 -0.43504175817582 -0.39655788718872  0.62894147704770
 6  0.54133351175118 -0.60323375547555 -0.52128378017802
 8  0.18947949764977 -0.92539394319432 -1.64153343364336
 8  1.79164618961896 -0.30949585638564 -0.07961218131813
 7 -7.09197680618062  2.63961536883688  0.39258441524152
 6 -6.06749388038804  3.40556151005101  0.85437342134213
 6 -6.41911990169017  4.75082571297130  0.77738550305030
 6 -7.68766936233623  4.85055494219422  0.30134704170417
 6 -8.17759831303130  3.49235952725273  0.13520385958596
 6 -5.42039782098210  5.83734482578258  1.33581010621062
 6 -8.51276048844885  5.99132420042004  0.41316133803380
 6 -8.18889808760876  7.20314639893989 -0.01075533783378
 7 -9.11358639433943  0.66214269256926 -0.57243894919492
 6 -9.83558521752175  1.78066874947495 -0.66831195539554
 6 -11.23822856575658  1.51758274867487 -1.10365511511151
 6 -11.29876839753975  0.18898277557756 -1.34266353255326
 6 -9.95253513721372 -0.38749723782378 -0.85934523742374
 6 -12.26943518561856  2.58727100800080 -1.34515504640464
 6 -12.39324937063706 -0.70952201440144 -1.74594977217722
 6 -12.29730606260626 -1.00514439963996 -3.21741984738474
 7 -7.22283853595359 -1.39627898949895 -0.10162328102810
 6 -8.34442966526653 -2.19524546404640 -0.62158996489649
 6 -7.84969263676368 -3.58639282218222 -0.60397882688269
 6 -6.54442996499650 -3.55559987548755 -0.14741723382338
 6 -6.18645342354235 -2.19818597309731  0.28203982538254
 6 -8.61277162186219 -4.88353117201720 -0.95461500850085
 6 -5.32158869656966 -4.40046603190319  0.07721622152215
 8 -5.34871623342334 -5.62301495509551  0.00141617641764
 6 -4.22863627362736 -3.38492142624262  0.60661155315532
 6 -3.54587895209521 -3.72337842244224  1.90312149184919
 8 -3.72370602520252 -3.15369860266027  2.98049176447645
 8 -2.85043639153915 -4.99289744224422  1.76564465246525
 6 -2.21088372687269 -5.54190465976598  2.92013335033503
 6  2.81481525812581 -0.61569082678268 -1.03093846874687
 6  4.15313863626363 -0.38877272667267 -0.37135966466647
 6  5.09989359675968  0.37910123462346 -0.83230313051305
 6  5.08873629022902  1.16626116241624 -2.19100619171917
 6  6.49759621722172  0.48519732663266 -0.12603929012901
 6  7.65191293019302 -0.14953683558356 -0.85942561126113
 6  8.94670375277528 -0.08467820132013 -0.07595018921892
 6  10.20864175717572 -0.61519861816182 -0.75212160656066
 6  10.05668285448545 -2.02173150805080 -1.16612827432743
 6  11.41001211831183 -0.26994788538854  0.08659885858586
 6  12.73440060906091 -0.52084860076008 -0.59923046284628
 6  13.95743143094309 -0.05769253245325  0.19534674767477
 6  15.37126247024703 -0.22306491819182 -0.44714776507651
 6  15.77336143834384 -1.66656944274427 -0.69074635443544
 6  16.40247350135013  0.54763915001500  0.48192737743774
 6  17.79943564786479  0.52563068886889 -0.22516079597960
 6  18.85135053455346  1.28557040384038  0.54637699939994
 6  20.28143582338234  1.44513025762576 -0.00061045744574
 6  20.30593082198220  2.23290893889389 -1.33820964236424
 6  21.21904977907791  1.94027839723972  0.96694339593959
 1 -3.92426268476848  3.51516989868987  1.54782930393039
 1 -10.26374012571257  3.79760734463446 -0.83207751035104
 1 -10.26176543834383 -2.60905095979598 -1.11748529602960
 1 -2.67983667436744 -1.15954561826183  1.94545178377838
 1 -2.22758239623962  1.54783327192719  1.19348371487149
 1 -1.83527725102510  0.78837432643264  3.56996721012101
 1 -3.17417220342034  2.01590104670467  3.62370693819382
 1 -3.81624260546055  0.33666803450345  3.68545242974297
 1 -2.10515304220422 -1.54165008540854 -0.57723270927093
 1 -2.03747794999500  0.17191928322832 -0.67613271487149
 1 -0.04093118711871  0.52537046054606  1.06370862276228
 1 -0.16261221492149 -1.04207718311831  1.45983885978598
 1 -4.83286545424542  5.87873304840484  0.54132591479148
 1 -5.75131980228023  6.99216901570157  1.34062875207521
 1 -4.94444767356736  5.35775094649465  2.20538421712171
 1 -9.60455795469547  5.76539947604761  0.69441728622862
 1 -8.89865050545054  8.13609219871987  0.05236582988299
 1 -7.18287332393239  7.48153872307231 -0.15488995959596
 1 -12.23272868566857  3.10442774807481 -2.19808610701070
 1 -13.18974418791879  2.12243788188819 -1.63778730243024
 1 -12.35933289468947  2.99281236663666 -0.26861835983598
 1 -12.46832936103610 -1.56899929812981 -1.03151335923592
 1 -13.28185418901890 -0.32790660366037 -1.67893525052505
 1 -13.21859232543254 -1.65734697389739 -3.62683568126813
 1 -12.20024019801980 -0.01538026392639 -3.84971254625463
 1 -11.44291763936394 -1.57818076207621 -3.36800591609161
 1 -8.79139003490349 -4.78377122542254 -2.02487006840684
 1 -8.11422512351235 -5.79426953515352 -0.69434366246625
 1 -9.50423258905890 -4.78047483448345 -0.37270552675267
 1 -3.26006613861386 -3.33070465496550 -0.11324797779778
 1 -1.66233732373237 -4.86950532783278  3.31769845684568
 1 -3.07983317071707 -5.73318396079608  3.58227544964496
 1 -1.77637906440644 -6.43722789988999  2.67133383628363
 1  2.79224389548955 -1.50697038693869 -1.60251432773277
 1  2.57567926812681 -0.01143822542254 -1.69268128792879
 1  4.46260548484848 -1.01028903510351  0.37830020622062
 1  4.13611454775478  1.05792688898890 -2.70368371067107
 1  5.26120941934193  2.13780817101710 -1.89597395199520
 1  5.80782610541054  0.68877920812081 -2.83642494179418
 1  6.74614763806381  1.45177140484048  0.21920941864186
 1  6.26964031203120  0.11984873597360  0.87495850295030
 1  7.26899064116412 -1.08798987068707 -1.17085121382138
 1  7.90141167216722  0.72443932043204 -1.71778192509251
 1  8.85695179237924  1.01495411191119  0.09790375287529
 1  8.81773959675968 -0.83621197659766  0.89497411601160
 1  10.22426413791379 -0.10238547224723 -1.74496832743274
 1  9.21472796919692 -2.24099114341434 -1.84137909910991
 1  10.95985907060706 -2.22961947454745 -1.74943112911291
 1  10.06557403100310 -2.89168079067907 -0.42073416411641
 1  11.30770553275327  0.89617402490249  0.41430339373937
 1  11.13550396009601 -0.89780211831183  1.06337381038104
 1  12.68539427512751 -1.43743060446045 -0.96333466836684
 1  12.83871277727773  0.07221670067007 -1.57986635043504
 1  13.83794529772977  1.06214947044704  0.60542720322032
 1  13.74026011631163 -0.64454689198920  1.14285945564556
 1  15.44668706080608  0.40203006340634 -1.15400506000600
 1  15.69302130313031 -2.19624635053505  0.17962036443644
 1  15.01382891469147 -2.07393558715872 -1.49975769616962
 1  16.79688774737474 -1.69514344294429 -1.24731684048405
 1  15.97934314401440  1.54579365206521  0.52657607860786
 1  16.47682938493849  0.01365496979698  1.47741067276728
 1  18.16502569446945 -0.34858182198220 -0.39904591219122
 1  17.58337841904191  0.85822708120812 -1.21603508740874
 1  18.49100778357836  2.20198209780978  0.81477657855786
 1  18.74413069046905  0.87252086338634  1.56644299589959
 1  20.46248631533153  0.41865830163016 -0.44598684828483
 1  19.97904473777378  3.25092407730773 -1.19107937743774
 1  21.36466258015802  2.32862874077408 -1.45994724872487
 1  19.94496532973297  1.69800120242024 -2.26219664296430
 1  21.25213522882288  1.56240554435444  2.02961240284028
 1  22.28207284778478  1.92117064826483  0.91172543874388
 1  20.93595612821282  3.12882655885589  1.11199713091309

