%nproc=3
%Mem=2GB
# td=(NStates=10) iop(3/107=0140000000,3/108=0140000000) CAM-B3LYP/6-31G(d,p) 

TD

0 1
12 -7.25925759505951  0.61110935163516  0.16534458305831
 6 -4.86193507460746 -2.01032314361436  0.59490512541254
 6 -4.98268757505751  2.74828915621562  1.30571402860286
 6 -9.45022961176118  3.23313571297130 -0.45214654765477
 6 -9.57131815941594 -1.74582475747575 -0.81263937893789
 7 -5.21295407700770  0.45936719721972  0.73665118551855
 6 -4.40132773807381 -0.74679529992999  0.79803170597060
 6 -2.97304826602660 -0.44485975807581  1.19208464966497
 6 -3.09398968816882  1.08155928842884  1.65213802020202
 6 -4.55018310501050  1.51143152355236  1.23213947514751
 6 -2.97060485148515  1.27291377867787  3.16260978707871
 6 -1.93346762766277 -0.60164417451745  0.19897922372237
 6 -0.40449870387039 -0.44289252065207  0.61203978687869
 6  0.55127450585059 -0.60001343344334 -0.53932558435844
 8  0.21004155385539 -0.88837024082408 -1.63651293159316
 8  1.70434745974597 -0.31329623642364 -0.20097431753175
 7 -7.20319792829283  2.53470487778778  0.30000515731573
 6 -6.16225335633563  3.25957691159116  0.79678766276628
 6 -6.42789077877788  4.70421105150515  0.89653741824182
 6 -7.73611420682068  4.89335922262226  0.35976288328833
 6 -8.19723027622762  3.50966125742574  0.08256859605961
 6 -5.56234201540154  5.89472056335634  1.35080160536054
 6 -8.58236744914491  6.11398646664667  0.16398642054205
 6 -8.23012221002100  7.32841892619262 -0.02279654195420
 7 -9.16990202590259  0.65974245254525 -0.43087479277928
 6 -9.93303496249625  1.82844352695270 -0.66039116331633
 6 -11.26487123002300  1.49302029242924 -1.14037878747875
 6 -11.30070859155916  0.10686456375638 -1.19590885708571
 6 -9.99945982968297 -0.41086957505751 -0.70898020092009
 6 -12.28214645674568  2.41596387728773 -1.58357888878888
 6 -12.40563060876088 -0.78852991519152 -1.73527870507051
 6 -12.19726605860586 -1.06811069626963 -3.28756686208621
 7 -7.22121837393739 -1.40248961056106 -0.05980909960996
 6 -8.22989821212121 -2.28862480198020 -0.52900070597060
 6 -7.89762743024302 -3.51641582448245 -0.47953638263826
 6 -6.54267978997900 -3.61959627512751 -0.06979947204720
 6 -6.22336711491149 -2.21265742024202  0.05397701910191
 6 -8.67624796949695 -4.80894371327133 -0.90097964496450
 6 -5.36452298999900 -4.43756974227423  0.16210471037104
 8 -5.23467482928293 -5.59915256885689  0.16220225502550
 6 -4.12883629362936 -3.30790372447245  0.45721661366137
 6 -3.47131149534953 -3.67434351895190  1.85607678737874
 8 -3.66034968956896 -3.18201143394339  2.92777649294930
 8 -2.73709505740574 -4.79910806330633  1.61634972297230
 6 -2.19172181068107 -5.35518598789879  2.81844318131813
 6  2.83110688728873 -0.58086734443444 -1.14537991289129
 6  4.09650297269727 -0.44855870527053 -0.40211273997400
 6  5.24015762316232  0.19898322282228 -0.79932983318332
 6  5.15424284088409  1.21322585888589 -1.97964505560556
 6  6.55250170777078  0.24320312721272 -0.00011669786979
 6  7.67927566646665 -0.14736661856186 -0.81198086678668
 6  9.02723180558056 -0.16848658215822 -0.01248384258426
 6  10.23468436143614 -0.64736183448345 -0.86890328472847
 6  10.09821700790079 -2.19160849574958 -1.14427608910891
 6  11.50780189728973 -0.23857474807481 -0.15555535683568
 6  12.87692486148615 -0.44929144504450 -0.82965350515051
 6  13.99118480628063  0.01060429722972 -0.00460324732473
 6  15.37078242224222 -0.08187079877988 -0.59782283258326
 6  15.71511561376138 -1.41118390419042 -1.06772405220522
 6  16.45257851185118  0.51488587468747  0.33141232593259
 6  17.87733343764377  0.67557568336834 -0.24046232613261
 6  18.85232063156316  1.35396724352435  0.72634499619962
 6  20.32597027682768  1.29920566516652  0.21349095269527
 6  20.52054228312831  2.02091773977398 -1.08252407380738
 6  21.23401127522752  1.78086245564556  1.31631833343334
 1 -4.06708696719672  3.08524690639064  1.84553907490749
 1 -10.23842759445945  4.04728231213121 -0.63956825942594
 1 -10.39105836763676 -2.53794384908491 -0.99035258275828
 1 -2.55791448214821 -1.15504516821682  1.93636087468747
 1 -2.53305294329433  1.60325881448145  1.14401876837684
 1 -1.97743146644664  0.91549703870387  3.67867808120812
 1 -2.85778056425643  2.36783624022402  3.40634520202020
 1 -3.92728370957096  0.86726109380938  3.64240812531253
 1 -2.33455598249825 -1.57798371877188 -0.27143212921292
 1 -2.16682088428843 -0.09255716441644 -0.71188629022902
 1 -0.41242833683368  0.53803172667267  1.01407365926593
 1  0.07238128442844 -0.91581455685569  1.43007588348835
 1 -4.88291045874587  6.28462363746375  0.63444522672267
 1 -6.31012568286829  6.65341514031403  1.63256794599460
 1 -5.09435266406641  5.61999717111711  2.34005768446845
 1 -9.57222472137214  5.89927286338634  0.22660050455045
 1 -8.87700834123412  8.23065165466547 -0.06621602830283
 1 -7.37232226882688  7.56260682988299 -0.21806627722772
 1 -11.95346075887589  3.25592289758976 -2.27266356475648
 1 -13.13172838633863  1.84999063716372 -2.09152267596760
 1 -12.90858782018202  3.11280436583658 -0.85352685068507
 1 -12.33864639273927 -1.73897629582958 -1.06248645654565
 1 -13.43593959755976 -0.43408722172217 -1.69535689268927
 1 -13.17465793199320 -1.70939217841784 -3.58162115981598
 1 -12.09971014501450 -0.21934065996600 -3.82906048104811
 1 -11.29393274087409 -1.77974091809181 -3.31661077657766
 1 -8.86830772667267 -4.88601144944494 -2.14050163156316
 1 -8.13540724172417 -5.74196430463046 -0.59263349144915
 1 -9.60577274307431 -4.73924071107111 -0.47832608880888
 1 -3.50034016601660 -3.30904248874887 -0.30213686668667
 1 -1.52867395739574 -4.63128150545054  3.28912559955996
 1 -2.88602378977898 -6.05390603300330  3.38575579767977
 1 -1.33482490899090 -6.14474865196520  2.29823652655266
 1  2.53028769986999 -1.51410110001000 -1.47523159945995
 1  2.79467116731673 -0.12390947254726 -2.08100011981198
 1  4.31624084838484 -1.07391539773977  0.45137751395140
 1  4.06876781308131  1.42203329962996 -2.13793713601360
 1  5.49488278667867  2.13440783098310 -1.64888924352435
 1  5.82829815261526  0.84283461366137 -2.78428972827283
 1  6.73039606290629  1.47658388608861  0.21698919661966
 1  6.53402675067507 -0.35325857475748  1.08588959605961
 1  7.43656739883988 -1.23848492019202 -1.18656278497850
 1  7.69004053505351  0.35791266776678 -1.92293244014401
 1  9.19352544974497  0.67211982848285  0.18710267276728
 1  8.85851367416742 -0.85243359875988  0.79491411001100
 1  10.41564327582758 -0.25736096979698 -1.92992682328233
 1  9.16808330473047 -2.42442948724872 -1.79877483868387
 1  10.81056414111411 -2.38906541914191 -1.90379656565657
 1  10.05273274687469 -2.71607322992299 -0.25877796849685
 1  11.38899366156616  0.77522192969297 -0.09595763236324
 1  11.74394480418042 -0.66580891899190  0.93154062706271
 1  13.02871860756076 -1.45507236863686 -1.00067840274027
 1  12.87742664866487  0.08555803480348 -1.89255761956196
 1  13.75837734093409  1.09454270977098  0.24705136563656
 1  14.12129822012201 -0.48796123342334  0.98269343904390
 1  15.42626501860186  0.56344620502050 -1.51630128962896
 1  15.40091209220922 -2.12835956185619 -0.23606120372037
 1  15.00981851365137 -1.68809700330033 -1.92796051645165
 1  16.88722678127813 -1.62069599819982 -1.51200330913091
 1  16.17799300900090  1.49900897359736  0.78523194419442
 1  16.52804450645065 -0.25997239293929  1.12197512921292
 1  18.32142133403341 -0.27329429322932 -0.49216522412241
 1  17.66024610581058  1.40636189468947 -1.22551603550355
 1  18.51946062886288  2.41698359795980  0.97313241414141
 1  18.75834211161116  0.62537614891489  1.63375972757276
 1  20.85184525122512  0.24306074187419 -0.07904015361536
 1  20.17574440774078  3.10570955585559 -0.94944521402140
 1  21.51608772267227  1.93801967986799 -1.33866512051205
 1  20.10748158135813  1.54973637593759 -1.97358778207821
 1  21.12786280158016  1.24946425022502  2.38489793139314
 1  22.24827946844685  1.82144067526753  0.99887415361536
 1  20.91959449204921  2.82269594579458  1.64285021622162

