%nproc=3
%Mem=2GB
# td=(NStates=10) iop(3/107=0140000000,3/108=0140000000) CAM-B3LYP/6-31G(d,p) 

TD

0 1
12 -7.26163783308331  0.62791103180318  0.10151820042004
 6 -4.96734561566157 -1.94705681698170  0.53380901580158
 6 -4.78546785308531  2.83029735703570  1.13674713191319
 6 -9.41942653145314  3.18553095249525 -0.32329366236624
 6 -9.63054408200820 -1.67896807180718 -0.86418453345335
 7 -5.24141692329233  0.47110837133713  0.71955947634763
 6 -4.40710831613161 -0.75532615301530  0.83665556835684
 6 -2.92256321752175 -0.42227749984999  1.18398383958396
 6 -3.08108839803980  1.02236336883688  1.73543635003500
 6 -4.47696578327833  1.44870525092509  1.20705696689669
 6 -2.99388717971797  1.07361384868487  3.27866139223922
 6 -1.83281756265627 -0.62066607670767  0.05724505030503
 6 -0.45030328432843 -0.41276950835084  0.50386896979698
 6  0.57071645004500 -0.58796222832283 -0.65715736753675
 8  0.26823737343734 -0.96674807860786 -1.70321960226023
 8  1.78006503150315 -0.39297420422042 -0.25521974207421
 7 -7.20566817531753  2.59754116141614  0.38005316211621
 6 -6.10669780078008  3.30671162506251  0.85191317531753
 6 -6.39951794149415  4.77936856725672  0.86378414291429
 6 -7.72269286468647  4.81953183988399  0.39683659065907
 6 -8.15846639983998  3.51333162446245  0.08602894209421
 6 -5.52755853705370  5.80707179847985  1.41650817601760
 6 -8.60210942334234  5.95822089008901  0.17588761066107
 6 -8.32482167996800  7.38152423672367  0.15644138183818
 7 -9.17213224892489  0.66126260456046 -0.62096380168017
 6 -9.89199085808581  1.78692937553755 -0.66078120232023
 6 -11.17080182308231  1.54888587898790 -1.09878462806281
 6 -11.35214373507351  0.19988386568657 -1.21811107730773
 6 -9.99488937263726 -0.34546303440344 -0.96570587348735
 6 -12.39887812991299  2.50322260316032 -1.26032656355636
 6 -12.44306435213521 -0.63836489868987 -1.68292346954695
 6 -12.32788912091209 -1.24813869906991 -3.13816192159216
 7 -7.33285953805381 -1.41475083668367 -0.14251737043704
 6 -8.44732995529553 -2.28063400290029 -0.51431923782378
 6 -7.88403607110711 -3.63715789868987 -0.42727115611561
 6 -6.51346686868687 -3.55557987348735 -0.05582807490749
 6 -6.27929270747075 -2.17309346384638  0.16884850625062
 6 -8.68835918061806 -4.85645846474648 -0.87097664466447
 6 -5.34016055375538 -4.44192017731773  0.24547304720472
 8 -5.14951631343134 -5.53906656025603  0.11707774257426
 6 -4.25557896789679 -3.29899283338334  0.57302819481948
 6 -3.46229059325933 -3.66627271187119  1.88907008670867
 8 -3.58762241684168 -3.09776300910091  2.93133684898490
 8 -2.63447479537954 -4.74165231773177  1.59330741874187
 6 -2.04535717421742 -5.21383185248525  2.80079141614161
 6  2.86504028062806 -0.63417267496750 -1.32894826972697
 6  4.17508083048305 -0.48214206360636 -0.60516304500450
 6  5.17879148654865  0.24153747824782 -1.06160606080608
 6  5.19605702230223  1.06330086638664 -2.39585667676768
 6  6.48099455705571  0.36247505440544 -0.33984067026703
 6  7.79688742764276 -0.13411529342934 -0.96390605930593
 6  8.93009209160916 -0.25864559805981 -0.11312390659066
 6  10.22484337733773 -0.69597669596960 -0.79429582398240
 6  10.25501268746875 -2.09436877177718 -1.21019268076808
 6  11.53089420652065 -0.25046593719372  0.07825802450245
 6  12.82545971497150 -0.37432394829483 -0.61679221902190
 6  14.01766745454545 -0.01212797599760  0.25375258825883
 6  15.33449879387939 -0.17633024472447 -0.36450950125012
 6  15.76864096629663 -1.72755554135414 -0.70195747554755
 6  16.46657991199120  0.41151553765377  0.48126731143114
 6  17.78329403370337  0.59825795159516 -0.21371965186519
 6  18.81846724622462  1.34212605940594  0.63759612131213
 6  20.23169084888489  1.34862060666067  0.15591519511951
 6  20.47965819471947  2.27044269226923 -1.05423124452445
 6  21.22943081718172  1.87277164656466  1.24449115071507
 1 -4.13056331483148  3.53487186888689  1.44286880788079
 1 -10.26525027672767  3.86764434833483 -0.42359666226623
 1 -10.44531379317932 -2.32868292299230 -1.17480102760276
 1 -2.75047373807381 -1.22092175587559  2.08535577417742
 1 -2.31718135613561  1.66591508010801  1.32064643114311
 1 -1.94894861816182  0.94158964796480  3.47961817521752
 1 -3.26242102830283  2.06162561916192  3.78733330083008
 1 -3.61931291249125  0.18907327502750  3.74790867536754
 1 -2.13993652055205 -1.52285820622062 -0.31247623362336
 1 -2.16344054625463  0.02688477977798 -0.80951605320532
 1 -0.47746484048405  0.66830475397540  0.78507075897590
 1 -0.16084203790379 -1.03912688808881  1.43393626952695
 1 -5.12150431813181  6.45240041514151  0.67480926312631
 1 -6.27953262356236  6.48951875067507  2.17053174237424
 1 -4.80154338313831  5.18473364476448  2.11665534423442
 1 -9.68429592849285  5.68180111621162  0.21019886438644
 1 -9.09244988538854  8.09675826532653 -0.01829123582358
 1 -7.23794883148315  7.79660022922292 -0.01974644524452
 1 -12.57981339413941  3.18107541284128 -2.24805110351035
 1 -13.36482169566957  1.97859349744974 -1.38034155785579
 1 -12.32547950935094  3.27306039143914 -0.49526102410241
 1 -12.32371489958996 -1.57495989418942 -0.98414862276228
 1 -13.50347635123512 -0.08693250625063 -1.55809316631663
 1 -13.27077754395440 -1.71514275347535 -3.30878387608761
 1 -12.16257643164317 -0.39242796869687 -3.75889346434643
 1 -11.57124047164717 -1.81902484648465 -3.30760987648765
 1 -8.76733762966297 -4.66565941424142 -1.97913549494949
 1 -8.05459916091609 -5.88443855205521 -0.50429465756576
 1 -9.69725189098910 -4.97764455145515 -0.30152840904090
 1 -3.62569270127013 -3.40067165166517 -0.35103175617562
 1 -1.48818990899090 -4.44354273157316  3.36270295729573
 1 -2.64127931533153 -5.89005964836484  3.43798102020202
 1 -1.25027645414541 -5.93676785388539  2.57459416231623
 1  2.90488515961596 -1.70103979387939 -1.45309938623862
 1  2.74576627682768 -0.11549863146315 -2.12932495229523
 1  4.47719694399440 -1.11874988118812  0.38293066926693
 1  4.39276021232123  1.10771186748675 -2.96530987328733
 1  5.49425272367237  2.26557094729473 -2.33844819941994
 1  6.01829715251525  0.78397872807281 -3.18574987428743
 1  6.62914593789379  1.51673790149015 -0.30815331763176
 1  6.39603295129513 -0.00700394929493  0.69290029712971
 1  7.65229897199720 -1.14995606730673 -1.60893502220222
 1  7.86772830383038  0.71749862636264 -1.83355350225023
 1  8.92896899409941  0.73976659315932  0.32069603210321
 1  8.59965778857886 -0.92123047844784  0.71040565916592
 1  10.16819853135314  0.05210997729773 -1.53666749734973
 1  9.46336283268327 -2.50283732803280 -1.89835479667967
 1  11.08822190689069 -2.35585209780978 -1.73987017301730
 1  10.04859233283328 -2.79013063566357 -0.37776986768677
 1  11.34074883708371  0.79219362686269  0.32283424682468
 1  11.42627303700370 -0.94783712181218  0.88656612961296
 1  12.94699043474347 -1.49371623302330 -0.91847018191819
 1  12.77903680968097  0.08292777177718 -1.66769513331333
 1  13.84865636883688  0.99984323982398  0.45702236273627
 1  13.94516060636064 -0.49974241154115  1.24872004170417
 1  15.30312270437044  0.44835469586959 -1.41055071457146
 1  15.91574357535754 -2.12352907880788  0.29557195959596
 1  15.08247577937794 -2.25714390799080 -1.37265498589859
 1  16.78648670727073 -1.83450737933793 -1.18301040984098
 1  16.06385159485949  1.34422349504950  0.73081650265026
 1  16.61720342234224  0.00213381768177  1.52258519021902
 1  18.24476366826683 -0.41999896369637 -0.57904391199120
 1  17.56983706490649  1.10238149664967 -1.16688017191719
 1  18.59993867666767  2.49691159075908  0.82258735963596
 1  18.58391466886689  1.07307091839184  1.55484183578358
 1  20.43234330103010  0.41431786758676 -0.07779002860286
 1  20.24112094539454  3.33112209710971 -0.83651392089209
 1  21.43741985588559  2.14131000890089 -1.60147140114011
 1  19.66950778397840  1.92067346964697 -1.73472389568957
 1  20.94408442374237  1.47261656545655  2.18157759935994
 1  22.44203884438444  1.80044857605761  1.01296556275628
 1  20.93033556615662  2.93160683688369  1.53672960416042

