%nproc=3
%Mem=2GB
# td=(NStates=10) iop(3/107=0140000000,3/108=0140000000) CAM-B3LYP/6-31G(d,p) 

TD

0 1
12 -7.24840650995099  0.59150739143914  0.02525057365737
 6 -4.91211009210921 -1.98319043034303  0.55489112401240
 6 -4.83870317661766  2.84770909820982  1.20381383858386
 6 -9.37648223702370  3.14859725912591 -0.37713904690469
 6 -9.54166519411941 -1.69597977297730 -0.95071318631863
 7 -5.14529731133113  0.41881314181418  0.85511303170317
 6 -4.35704330963096 -0.71196181658166  0.92097400020002
 6 -2.95526648784878 -0.44336960906091  1.34710015121512
 6 -3.02330261946195  1.01115224772477  1.85232803920392
 6 -4.38471655835584  1.53512389278928  1.30945720692069
 6 -3.05108289928993  1.21269775707571  3.33691721782178
 6 -1.96983126402640 -0.69204321442144  0.15551487728773
 6 -0.54609286328633 -0.50145837723772  0.57703628652865
 6  0.51221059945995 -0.83884731683168 -0.45027667946795
 8  0.15010556025603 -1.20568197199720 -1.54978425872587
 8  1.77301432643264 -0.50565547234723 -0.04821904200420
 7 -7.11567917641764  2.66770817811781  0.28828398519852
 6 -6.06338346934693  3.36155710961096  0.80592857685769
 6 -6.36056404610461  4.82667329772977  0.81337910241024
 6 -7.74171476687669  4.85731561826183  0.40511741874187
 6 -8.10954150735073  3.50413070437044 -0.02334199499950
 6 -5.41506728792879  5.95070616191619  1.28103462866287
 6 -8.59902911531153  6.03789885788579  0.33905392729273
 6 -8.10421961976198  7.30158624292429  0.09778551625163
 7 -9.07930296599660  0.66176265456546 -0.63568527382738
 6 -9.86826848584858  1.86070675327533 -0.67618274247425
 6 -11.20262500540054  1.51450244064406 -1.06382113171317
 6 -11.22713123382338  0.13768764606461 -1.35750501670167
 6 -9.88091797549755 -0.34199268736874 -0.96647595049505
 6 -12.30964920702070  2.52747502840284 -1.59719024992499
 6 -12.26528657435744 -0.74265532773277 -1.77982315951595
 6 -12.34937126912691 -1.18290217541754 -3.24847295269527
 7 -7.26783303540354 -1.43327268886889 -0.13778689738974
 6 -8.33004822712271 -2.15950188968897 -0.49992779867987
 6 -7.83618128562856 -3.54333851675168 -0.49310773977398
 6 -6.50232575457546 -3.66953126862686 -0.14946743884388
 6 -6.27562234043404 -2.27022317681768  0.14944656605661
 6 -8.67861820652065 -4.72969578847885 -0.96235578257826
 6 -5.33512004970497 -4.38434441974197  0.12411091099110
 8 -5.09238059985999 -5.54299695329533  0.04785081988199
 6 -4.20908431843184 -3.33858679277928  0.56628752075207
 6 -3.63811817601760 -3.78288437303730  1.91944312401240
 8 -3.88794244884488 -3.21940517331733  3.01406512181218
 8 -2.89967131503150 -4.86730488298830  1.85667375537554
 6 -2.41218385688569 -5.34941541084108  3.13142447944794
 6  2.73619739633963 -0.75093435113511 -1.15103047794779
 6  4.08528185058506 -0.53343719311931 -0.45806833553355
 6  5.16095970337034  0.21900522502250 -0.77991789198920
 6  5.02486990359036  1.10114465076508 -2.05288237933793
 6  6.51793825142514  0.37724653155316 -0.18835552175218
 6  7.75325306420642 -0.14864674657466 -1.00492016071607
 6  8.99178826122612 -0.09695942944294 -0.26100869506951
 6  10.28030892389239 -0.40191729002900 -1.07068346274627
 6  10.29852703890389 -1.82936227112711 -1.65598726022602
 6  11.46950806790679 -0.23373426402640 -0.16039584088409
 6  12.78056522552255 -0.49167568346835 -0.89153969376938
 6  13.92717840564056 -0.01225798899890  0.04724193719372
 6  15.32113745774577 -0.04347695939594 -0.54467751805180
 6  15.75191929412941 -1.47287007280728 -1.04924220402040
 6  16.45363861786178  0.53894828092809  0.44284346904690
 6  17.87276298059806  0.72893101890189 -0.09865814571457
 6  18.89083448294830  1.29805165196520  0.79719208090809
 6  20.29507718751875  1.32401814641464  0.21405100870087
 6  20.44053428232823  2.15568121612161 -1.13844966636664
 6  21.31666954105411  1.81942631203120  1.41238794039404
 1 -4.08695895439544  3.64691307300730  1.49005352635263
 1 -10.05707945964597  4.08139572347235 -0.32751705430543
 1 -10.31187044884488 -2.34292434713471 -1.25092864036404
 1 -2.65849454015402 -1.24816448014801  2.23803104170417
 1 -2.14007364536454  1.71183967256726  1.47748211471147
 1 -2.21376509980998  0.85297078607861  3.81857207060706
 1 -3.05941072727273  2.21747120372037  3.49124369186919
 1 -4.00989197039704  0.78317268496850  3.76486037053705
 1 -1.96105863276328 -1.64573049344934 -0.30443542954295
 1 -2.20413461566157  0.04144623592359 -0.77497259885989
 1 -0.46499359335934  0.60407833133313  0.76472872477248
 1 -0.32619857355736 -1.05649862526253  1.59742261816182
 1 -4.68677084478448  6.37378255335534  0.50235201740174
 1 -5.71439610991099  6.78293809260926  1.99533422262226
 1 -4.64783801260126  5.26315148654865  1.97389106780678
 1 -9.76944444334433  5.96460939703970  0.28178602310231
 1 -8.64877551795179  8.08448703820382 -0.01002040874087
 1 -7.14004904150415  7.55361593079308  0.13893942334233
 1 -11.93963937673768  2.91306861216122 -2.43377967636764
 1 -13.22330754425442  1.90066570467047 -1.74910843454345
 1 -12.48239520092009  3.21145423082308 -0.62168366636664
 1 -12.36931946004600 -1.65652805100510 -1.12704291219122
 1 -13.24965096869687 -0.04870868386839 -1.44446180318032
 1 -13.27118758495850 -1.80824206340634 -3.28560155785579
 1 -12.48067824182418 -0.27014574047405 -3.72030960596060
 1 -11.34429777737774 -1.66835977997800 -3.47606672217222
 1 -8.98343923982398 -4.69427227552755 -2.09164674607461
 1 -8.02778647964796 -5.61774188238824 -0.92892712081208
 1 -9.67522968876888 -4.94106089308931 -0.29694795099510
 1 -3.43352348434843 -3.38943052755275 -0.21322797579758
 1 -1.86005709570957 -4.69833821112111  3.58868555555555
 1 -3.07093228062806 -5.79695033743374  3.85016223832383
 1 -1.86724815131513 -6.15270944804480  2.80062676557656
 1  2.56681135223522 -1.88911860176018 -1.27084116041604
 1  2.58126982718272 -0.16182326392639 -1.93646566636664
 1  4.33891311561156 -1.06300430663066  0.29373174937494
 1  3.91559249554956  1.25094619091909 -2.42870621292129
 1  5.46854015241524  2.01939632983298 -1.86422077667767
 1  5.42326764956496  0.69247957815782 -3.02632393169317
 1  6.65601862516252  1.32142837053705  0.16190368806881
 1  6.52289563756376 -0.42420566946695  0.82092309940994
 1  7.66041978407841 -1.20104117581758 -1.22086621532153
 1  7.77012854385439  0.51241811831183 -1.93715386228623
 1  9.32072817001700  0.74139675617562  0.28043200570057
 1  8.73220104290429 -0.79891824722472  0.61507612621262
 1  10.41473318481848  0.45731049734974 -1.81464529512951
 1  9.43049954635464 -1.95855289958996 -2.20158511971197
 1  11.20704378907891 -2.16427293989399 -2.26123230923092
 1  10.08078555215522 -2.47230885348535 -0.77121921262126
 1  11.61119588178818  0.95009941744174  0.20735269866987
 1  11.28595900560056 -0.94323666176618  0.63697117011701
 1  12.80762649834984 -1.30574743614361 -1.25979431433143
 1  12.70146905290529  0.13049252825282 -1.86552491629163
 1  13.60124162736274  0.98877213271327  0.18946560706071
 1  13.98877496779678 -0.50985342264226  1.03147831753175
 1  15.33262565466547  0.46524638503850 -1.55641530103010
 1  15.67058905990599 -2.30552727862786 -0.10857845544554
 1  14.84044157595760 -1.84298249184918 -1.86864458485849
 1  16.78169622822282 -1.40565449404940 -1.40359246804681
 1  15.95268047774777  1.62654172687269  0.75190861186119
 1  16.71013271527153 -0.14284067976798  1.39307223892389
 1  18.23662285418542 -0.40613757755776 -0.28685469306931
 1  17.87934801600160  1.16351761026103 -1.00354383828383
 1  18.51957063986399  2.45207710731073  1.05082018291829
 1  19.01264754215421  0.76631024232423  1.67681403300330
 1  20.65989605630563  0.56609304510451  0.20114786518652
 1  20.13400023332333  3.27963694859486 -0.92984325382538
 1  21.42015812971297  2.09973585148515 -1.38731998599860
 1  19.62863369656965  1.66380778307831 -1.83129355265527
 1  20.95568558385839  1.03587289108911  2.17922736433643
 1  22.26914155465547  1.80779931113111  1.16353061926193
 1  21.07291982458246  2.91055473167317  1.71802773397340

