%nproc=3
%Mem=2GB
# td=(NStates=10) iop(3/107=0140000000,3/108=0140000000) CAM-B3LYP/6-31G(d,p) 

TD

0 1
12 -7.16109777907791  0.60231847254725  0.01530957955796
 6 -4.86613549464946 -2.01574368566857  0.49123475837584
 6 -4.80033934023402  2.80299462676268  1.26829028622862
 6 -9.39224381318132  3.10343274267427 -0.25494682768277
 6 -9.51778280588059 -1.72522269726973 -0.77995611061106
 7 -5.10303308490849  0.39915117561756  0.75615313571357
 6 -4.30272787808781 -0.80995161556156  0.78270017281728
 6 -2.92605356655666 -0.45033030513051  1.27871331253125
 6 -3.06110639983998  0.98082921542154  1.77201000740074
 6 -4.39404749144914  1.47697807820782  1.23115937713771
 6 -2.89434722572257  1.17023351065107  3.27769129522952
 6 -1.91096537743774 -0.55627963806381  0.17001632743274
 6 -0.48068632263226 -0.43433166456646  0.64135271817182
 6  0.49884926332633 -0.57061049314932 -0.49261091289129
 8  0.23897444714471 -0.98827023082308 -1.58357763806381
 8  1.76024304930493 -0.32065697249725 -0.01601582168217
 7 -7.05089269776978  2.60008141544154  0.32500765756576
 6 -5.98703583458346  3.35554650855086  0.75745372937294
 6 -6.36778476817682  4.77623825422542  0.88567633213321
 6 -7.66662725812581  4.79116900360036  0.41753866086609
 6 -8.12583313651365  3.40068035933593  0.22533287248725
 6 -5.48121390259026  5.84196528782878  1.35158168336834
 6 -8.54135334773477  6.03916898489849  0.32932295419542
 6 -8.10572977077708  7.19828591289129 -0.16655091739174
 7 -9.15747078277828  0.59927640594059 -0.50666237153715
 6 -9.88658031703170  1.83322400500050 -0.59337446164616
 6 -11.21049579247925  1.51480247064706 -1.18479322892289
 6 -11.26310483118312  0.05407928522852 -1.29674894109411
 6 -9.97368725242524 -0.41769025712571 -0.99799910281028
 6 -12.20893913601360  2.54952723362336 -1.49046957785779
 6 -12.39460950665067 -0.67455851805181 -1.83494867206721
 6 -12.28187451945194 -1.03186707190719 -3.34859296469647
 7 -7.29638589068907 -1.44937429902990 -0.12812593129313
 6 -8.25860108240824 -2.29365530503050 -0.45980378627863
 6 -7.90538820632063 -3.61427561046105 -0.49573800280028
 6 -6.52119764176418 -3.61227554305431 -0.13065555765577
 6 -6.21826660486049 -2.22166832133213  0.16194781618162
 6 -8.77515786048605 -4.82915573447345 -0.67041658865887
 6 -5.32497903560356 -4.44109009430943  0.12665116501650
 8 -5.06062742454245 -5.62643529712971  0.21761779657966
 6 -4.28105151515151 -3.40785371947195  0.52623351535153
 6 -3.58191255545555 -3.74024010861086  1.82274345404540
 8 -3.76016967156716 -3.24026725952595  2.90373408870887
 8 -2.65061640954095 -4.67981613411341  1.59996808480848
 6 -2.21317395589559 -5.17315778507851  2.88665000200020
 6  2.81009478607861 -0.57561681938194 -1.06272164706471
 6  4.07724104650465 -0.32062591199120 -0.37010953965397
 6  5.09832343974397  0.41894521902190 -0.90693059325933
 6  5.12465988258826  1.10730526682668 -2.18010510161016
 6  6.43394985258526  0.40931973887389 -0.18221490769077
 6  7.63655139403940 -0.10209209110911 -0.94462413111311
 6  8.85543462586259 -0.00729046254625 -0.23323591779178
 6  10.10662155515551 -0.65163226152615 -1.13788018241824
 6  10.02879006520652 -2.11900123502350 -1.44265592709271
 6  11.39941105820582 -0.29229011961196 -0.23390319161916
 6  12.75806297529753 -0.37704422032203 -0.93074361416142
 6  13.91401708950895 -0.09831659485949  0.07840505350535
 6  15.35786113011301 -0.16596920862086 -0.46191924222422
 6  15.66433053525353 -1.59896268206821 -0.83769104890489
 6  16.35851910591059  0.51640602670267  0.50093927862786
 6  17.78791449574958  0.52720084588459 -0.10610889078908
 6  18.83212861236124  1.26427827462746  0.86672903460346
 6  20.22002968276828  1.31212695729573  0.22075167876788
 6  20.38313854275427  2.20245589358936 -1.06492231363136
 6  21.27432530663067  1.87042141154115  1.27289399099910
 1 -4.27002726122612  3.77765614731473  1.81839636063606
 1 -10.06825057675768  3.86998458235824 -0.40376467906791
 1 -10.28882814461446 -2.47622767746775 -0.98487203470347
 1 -2.61775046574657 -1.13770343404340  2.12929016761676
 1 -2.37561719971997  1.67952644124412  1.45869023552355
 1 -1.72520624392439  0.96419190819082  3.28732894629463
 1 -2.98273305950595  2.28985844244424  3.73058762626263
 1 -3.39982096329633  0.37566193389339  3.79163304780478
 1 -1.99323185008501 -1.50639656005601 -0.46157114311431
 1 -2.17519172137214  0.30428251955196 -0.49621472307231
 1 -0.27988508250825  0.72730065356536  0.91440369226923
 1 -0.13905985968597 -1.12000497589759  1.39466234213421
 1 -4.82095426312631  6.45714088918892  0.70058184038404
 1 -6.35933060336034  6.55576537533753  1.75501019021902
 1 -5.02327555635564  5.43549872127213  2.11979565826583
 1 -9.64795229412941  5.79669260536054  0.39885773027303
 1 -8.76821746214621  7.99374796429643 -0.40516992369237
 1 -6.87582261886189  7.30365093429343 -0.26342081268127
 1 -11.79166457925793  3.12717002230223 -2.34711100950095
 1 -13.12193740724072  2.08337397549755 -1.75364888858886
 1 -12.24723168456846  3.34476756215621 -0.79053055105511
 1 -12.67414994309431 -1.59152155035504 -1.35140534843484
 1 -13.30072607620762 -0.10693450645064 -1.61587894489449
 1 -13.11135160136014 -1.65611685088509 -3.42049504720472
 1 -12.33310348434844  0.07971924602460 -3.94420199519952
 1 -11.45414876247625 -1.75616856085609 -3.38089720522052
 1 -9.42772366826683 -4.59359220752075 -1.59568715011501
 1 -8.30487418841884 -5.74301440964096 -0.70159438753875
 1 -9.41261342714271 -4.84101088808881  0.28737048084809
 1 -3.53316344834484 -3.68583016751675 -0.40287694069407
 1 -1.89105019501950 -4.40692907020702  3.74471115811581
 1 -3.13209839723972 -5.62403304570457  3.37320454255426
 1 -1.43315474197420 -5.98638281538154  2.60597730063006
 1  3.04237890899090 -1.62773246314631 -1.38686276257626
 1  2.76426812701270  0.00541345974597 -1.87090911071107
 1  4.48298752305231 -0.77343534973497  0.53238561476148
 1  4.16263720002000  1.03387448374837 -2.61379472177218
 1  5.72176547494749  2.11063545374537 -2.16992134673467
 1  5.56628195099510  0.73090342054205 -3.13327462676268
 1  6.79696271957196  1.45439166686669  0.11478897659766
 1  6.41691503950395 -0.23719696859686  0.77153816091609
 1  7.48477221932193 -1.02598367006701 -1.25432956165617
 1  7.66658818981898  0.43261013751375 -1.84469461636164
 1  9.30267636483648  1.06075869236924 -0.04493053055305
 1  8.80145796859686 -0.66416477187719  0.65684030263026
 1  10.39775148664867  0.00878564486449 -2.24666849744975
 1  9.09419591599160 -2.24696174047405 -2.03005796699670
 1  10.71789487418742 -2.42053856645665 -2.13669985598560
 1  10.07094456805681 -2.45950757335734 -0.53331542224222
 1  11.27986274847485  0.76445085258526  0.22257422082208
 1  11.44707511721172 -0.86331866996700  0.62032950595060
 1  12.83572930863086 -1.38365522692269 -1.50537887278728
 1  12.90691959795980  0.42561204020402 -1.79342770657066
 1  13.73782528572857  0.80229348484848  0.57745440594059
 1  13.81140723102310 -0.82402483978398  0.97217238693869
 1  15.41476386848685  0.24078393879388 -1.57231689118912
 1  15.78039004000400 -2.31181790769077 -0.02556015361536
 1  14.93276080788079 -1.98141633523352 -1.61142886328633
 1  16.52922098069807 -1.56268019661966 -1.37981008980898
 1  16.09485469516952  1.55896496919692  0.40040346134613
 1  16.39152085408541  0.23699730403040  1.49551248294830
 1  18.27083627552755 -0.35446241004100 -0.25800180778078
 1  17.68723880508051  0.98911016951695 -1.02324580848085
 1  18.33343202600260  2.28778067766777  1.21511661256126
 1  18.78405468286828  0.71249486078608  1.73926027762776
 1  20.59746981368137  0.26862329812981  0.15252300270027
 1  20.22996983028303  3.34863384828483 -0.92440270977098
 1  21.37574368826883  2.09036491439144 -1.48862011601160
 1  19.89374020722072  1.91608301060106 -1.76291671497150
 1  21.11195121042104  1.42792209600960  2.13987342894289
 1  22.31491613211321  1.88634716591659  1.05113938013801
 1  21.27462999559956  3.02296597279728  1.70174610581058

