%nproc=3
%Mem=2GB
# td=(NStates=10) iop(3/107=0140000000,3/108=0140000000) CAM-B3LYP/6-31G(d,p) 

TD

0 1
12 -7.18343001230123  0.58939718041804  0.05878392699270
 6 -4.91272015311531 -1.93883599489949  0.48564419931993
 6 -4.77453675997600  2.85218954625463  1.11209466666667
 6 -9.37714230303030  3.07199959935994 -0.42508384138414
 6 -9.54883591119112 -1.71194136913691 -0.82879099409941
 7 -5.10880366196620  0.44925618611861  0.71579910031003
 6 -4.43967157245725 -0.76455707610761  0.69606150895090
 6 -2.94531549274928 -0.48561383348335  1.18841428262826
 6 -3.03833412261226  0.97951908440844  1.78746155255526
 6 -4.39610769746975  1.47473785418542  1.19612587378738
 6 -2.77923571457146  1.16365285258526  3.30180370647065
 6 -1.93723800470047 -0.50432444254425  0.03478280408041
 6 -0.49371762576258 -0.51149938133813  0.49941852475248
 6  0.48109748814881 -0.69013244534453 -0.60852250405041
 8  0.31115166486649 -1.12425382918292 -1.74687396769677
 8  1.73461048604860 -0.44479938673867 -0.13973819391939
 7 -7.07061466996700  2.61710311761176  0.37312246904690
 6 -6.08526565756576  3.41775272917292  0.81572955695570
 6 -6.45165315501550  4.75204583498350  0.95201296579658
 6 -7.75702629802980  4.76095598229823  0.39607651465147
 6 -8.16789734293429  3.41835212651265  0.13485382458246
 6 -5.74598037923792  5.89365045634563  1.42375890109011
 6 -8.67121633403340  6.02761782978298  0.38669869176918
 6 -8.28749794759476  7.25603168746875  0.15458119581958
 7 -9.14676971267127  0.65009148744875 -0.46296800210021
 6 -9.88341000000000  1.78957964056406 -0.70927605180518
 6 -11.17432217511751  1.52526351675168 -1.22816756635664
 6 -11.20540906160616  0.10867474477448 -1.31732099829983
 6 -9.94626451015101 -0.30700918901890 -0.87139644254425
 6 -12.29516775887589  2.31734401530153 -1.49216974787479
 6 -12.39573961966197 -0.73039410161016 -1.72007718491849
 6 -12.43106943894390 -1.06466035123512 -3.25795390079008
 7 -7.25028128022802 -1.39201856345635 -0.22632575127513
 6 -8.31008623092309 -2.17353329282928 -0.44527233313331
 6 -7.78696636413641 -3.60640482338234 -0.51188961796180
 6 -6.54692021402140 -3.58460277577758 -0.08368086018602
 6 -6.21179595779578 -2.14760091459146  0.07556917831783
 6 -8.70469081378138 -4.87620043894389 -0.69955950295030
 6 -5.36828336603660 -4.24104008930893  0.07139563946395
 8 -5.10947230903090 -5.48071072467247  0.09379541434143
 6 -4.20172358235824 -3.22879581368137  0.49445033703370
 6 -3.70370473467347 -3.71232731733173  1.82871405110511
 8 -3.98939259385939 -3.31618485128513  2.92984669997000
 8 -2.66989833773377 -4.61791994449445  1.71517960596060
 6 -2.22701534003400 -5.05800626992699  2.96868820582058
 6  2.89919369596960 -0.64973423112311 -1.04183955885589
 6  4.19581290369037 -0.46023987338734 -0.41670419911991
 6  5.17553116051605  0.18813213771377 -0.93055295549555
 6  5.11675909250925  1.02995753205321 -2.15136222732273
 6  6.41519797739774  0.37223603050305 -0.12543923012301
 6  7.67105484438444 -0.07524940684068 -0.96201587028703
 6  8.85423450585058 -0.10024975847585  0.00860826662666
 6  10.17489838283828 -0.51640873917392 -0.79807620202020
 6  10.14029121532153 -1.95531486638664 -1.33665532703270
 6  11.49381049814981 -0.18594948554855  0.04170436913691
 6  12.76790395939594 -0.44651116701670 -0.74083462326233
 6  14.02761844964497 -0.07758452165217  0.16025323832383
 6  15.40064540854086 -0.15255786748675 -0.54208725902590
 6  15.86857095929593 -1.59770255605561 -0.95758303810381
 6  16.52567582158215  0.45619000510051  0.42464164886489
 6  17.83257896219622  0.58893701950195 -0.23938221812181
 6  18.87905330483049  1.31831367816782  0.68973133483348
 6  20.26884456425643  1.29835558015802  0.21907151075108
 6  20.50874110301030  2.04555020302030 -1.16213203460346
 6  21.19882775687569  1.97423179257926  1.21287798939894
 1 -3.98140839933993  3.49403778547855  1.58166268726873
 1 -10.20284403610361  3.76230381428143 -0.62503680628063
 1 -10.35682494429443 -2.55702575727573 -0.97708125562556
 1 -2.78104679537954 -1.11442110581058  2.00392763136314
 1 -2.32319195719572  1.59020750935094  1.26025039153915
 1 -1.89395311861186  0.89108459745975  3.70296050945095
 1 -3.13850863706371  2.11331078767877  3.51370593809381
 1 -3.40145112631263  0.67912227992799  3.78562244674467
 1 -2.15589811671167 -1.34028994939494 -0.48213319931993
 1 -2.06602080428043  0.24221631293129 -0.57742284388439
 1 -0.24054114811481  0.41585950945094  0.86032828472847
 1 -0.45327128082808 -1.21351432683268  1.29562243814381
 1 -5.11009317701770  6.14071924702470  0.46430821302130
 1 -6.44189886018602  6.57918771757176  1.64828951815182
 1 -4.97318054685469  5.45216038743874  2.29450312901290
 1 -9.68873637253725  5.77127006310631  0.43931177567757
 1 -8.72450309070907  8.33661225072507  0.35616620992099
 1 -7.11875691229123  7.49522009120912 -0.14505897649765
 1 -11.92097751055106  2.98498580388039 -2.21950824922492
 1 -13.23130834433443  1.88944458255826 -1.86196972067207
 1 -12.63983094449445  2.82853593899390 -0.56164766276628
 1 -12.49676220432043 -1.65243764196420 -1.13730393829383
 1 -13.29870587418742 -0.11563537653765 -1.48743610061006
 1 -13.23266373257326 -1.44048528772877 -3.60919391709171
 1 -12.23785395939594 -0.23172189808981 -3.88854642964296
 1 -11.74636798439844 -1.77606055005501 -3.65782489798980
 1 -9.21951284718472 -4.84519736803680 -1.59116669806981
 1 -8.25005870687069 -5.84091419961996 -0.70905513361336
 1 -9.48481064686469 -5.03485027202720  0.23449519331933
 1 -3.43601373337334 -3.48067965246525 -0.09618627162716
 1 -1.67617870787079 -4.37899627692769  3.50888757575758
 1 -3.10306549394939 -5.35570621302130  3.45957317941794
 1 -1.69032045854585 -6.15632981008101  2.80440714361436
 1  2.97454212531253 -1.82112180208021 -1.43035711201120
 1  2.89939163936394  0.07904082248225 -1.92882490229023
 1  4.27819704400440 -1.03523152935294  0.46782915911591
 1  4.10794173047305  1.17139823612361 -2.57522086438644
 1  5.48508180658066  2.10985537573757 -2.23119747434743
 1  5.58994431723172  0.62006233643364 -3.14092539183918
 1  6.46736976027603  1.24779100680068  0.32609010671067
 1  6.27030037803780 -0.37343059195920  0.87203821092109
 1  7.61111485358536 -1.24205527722772 -1.37085121382138
 1  7.59428095909591  0.49222609910991 -1.87926807370737
 1  9.09670576777678  0.88786140264026  0.55639960246025
 1  8.84959278207821 -0.84321267666767  0.88518313691369
 1  10.06157786928693  0.13997876417642 -1.55666949754975
 1  9.32905940234023 -2.20832787708771 -2.24506946814682
 1  11.25687877257726 -2.16704321692169 -1.77250343634363
 1  10.32872034563456 -2.72975459805981 -0.47116920762076
 1  11.54197896009601  0.96109051655166  0.35435739913991
 1  11.63830424012401 -0.70821315941594  1.02005947894790
 1  12.94957069276928 -1.34653151455146 -1.09586792169217
 1  12.92772167816782  0.00970044904490 -1.57563592739274
 1  13.99479098229823  0.83168642414241  0.64546120662066
 1  14.05671176147615 -0.76043848114811  1.15617078677868
 1  15.41301369346935  0.49186904730473 -1.46413607310731
 1  16.08632063306331 -2.10220694659466  0.10689309170917
 1  15.19779731153115 -1.94504269786979 -1.72308002840284
 1  16.83733179177918 -1.65288921752175 -1.29564167296730
 1  16.33497870757076  1.30485955865587  0.81495491649165
 1  16.78492019401940 -0.26314270997100  1.15380831253125
 1  18.19606879877988 -0.35931289508951 -0.48091409900990
 1  17.60289037023702  1.06279753825383 -1.23595707960796
 1  18.46037472027202  2.33846574617462  0.79775487638764
 1  18.64668094549455  0.69885349664966  1.60511686328633
 1  20.65672573927393  0.12262869866987  0.02130988138814
 1  20.12807964126413  3.07132611751175 -0.99341961146115
 1  21.65709182308231  2.08904478237824 -1.30178143214321
 1  19.90779161236123  1.76342774507451 -1.88028845214522
 1  21.30463047834784  1.31422072587259  2.29771921352135
 1  22.29071371187119  2.10912944414441  0.70452471867187
 1  20.91548408100810  2.92826650285028  1.45440137133713

