%nproc=3
%Mem=2GB
# td=(NStates=10) iop(3/107=0140000000,3/108=0140000000) CAM-B3LYP/6-31G(d,p) 

TD

0 1
12 -7.16210788008801  0.58784702540254  0.14210225882588
 6 -4.85282416351635 -1.90919303060306  0.41446708160816
 6 -4.83300260656066  2.82946727402740  1.13445690289029
 6 -9.49740432923292  3.09691209060906 -0.21358269126913
 6 -9.49837086468647 -1.73574374937494 -0.94179229422942
 7 -5.10247302890289  0.43194445494549  0.89264678507851
 6 -4.36737434273427 -0.62590321072107  0.74440634343434
 6 -2.90783174437444 -0.33925919801980  1.14920036123612
 6 -3.04059434863486  1.12010314281428  1.64878768516852
 6 -4.37389547624762  1.45534591499150  1.10017627882788
 6 -2.91541933293329  1.29075556285629  3.19110263636364
 6 -1.88603288418842 -0.53795780588059  0.06042536833683
 6 -0.47397565156516 -0.36302453385339  0.51215979887989
 6  0.52632201060106 -0.67076050815081 -0.58625027682768
 8  0.19931048074807 -1.09145054885489 -1.72669194949495
 8  1.75134215921592 -0.50698560536054 -0.18476269636964
 7 -7.14206181468147  2.57028843614361  0.55332048884888
 6 -6.07027415841584  3.36590754465447  0.84649263326333
 6 -6.44098208790879  4.76661729212921  0.90172793729373
 6 -7.83251384678468  4.84624451115112  0.36014292129213
 6 -8.22653320652065  3.41104139543954  0.28068840804080
 6 -5.49923570477048  5.83148423972397  1.29559608480848
 6 -8.56611582398240  5.97725279327933  0.06806682858286
 6 -8.22158135593559  7.28046413071307  0.03929966766677
 7 -9.23359839553955  0.71836831513151 -0.34712641794179
 6 -9.97645930493049  1.81504218681868 -0.60466559075908
 6 -11.27051179407941  1.44369535993599 -1.01236598619862
 6 -11.31778029872987  0.06151002830283 -1.15315458165817
 6 -9.98177806150615 -0.38088657675768 -0.84307361026103
 6 -12.36497473957396  2.43811609250925 -1.30794132503250
 6 -12.42150219591959 -0.80545160736074 -1.70896607380738
 6 -12.42749908190819 -1.10696458165817 -3.15901400680068
 7 -7.17159341144114 -1.31265062666267 -0.27994111281128
 6 -8.22647787008701 -2.10086602610261 -0.55155296119612
 6 -7.73312097959796 -3.51672585548555 -0.53148157715772
 6 -6.42356787878788 -3.49844415991599 -0.14896738883888
 6 -6.09388416661666 -2.13893004750475 -0.13904228282828
 6 -8.50554089878988 -4.68717153605361 -0.90517006400640
 6 -5.21605814351435 -4.37583356865687  0.17160566046605
 8 -5.06606796859686 -5.53915656925693  0.18340437523752
 6 -4.07987139713971 -3.29488242234223  0.44653554555456
 6 -3.46215057925793 -3.64782086668667  1.69052023172317
 8 -3.59975362996300 -3.15383861666167  2.86242995829583
 8 -2.59280062796280 -4.62833098559856  1.56271435943594
 6 -1.89761239973997 -5.06043651295129  2.72294363136314
 6  2.88059183578358 -0.62882213991399 -1.16089146404640
 6  4.13995731813181 -0.44023787318732 -0.48718124682468
 6  5.14761836923692  0.24848817331733 -0.89122902310231
 6  5.09697711431143  1.19336387268727 -2.11157824892489
 6  6.38976543414341  0.19944875177518 -0.11980866706671
 6  7.58867660656066 -0.35448733063306 -0.82929259795980
 6  8.91056013841384 -0.19848958245825 -0.11894448864886
 6  10.22217311031103 -0.66222332063206 -0.74623101750175
 6  10.10290747694770 -2.13400273517352 -1.23902556405641
 6  11.47258837593759 -0.33424431503150  0.09127932663266
 6  12.85713288228823 -0.61808832473247 -0.66092663246325
 6  13.90238592639264 -0.17932469566957  0.26379359235924
 6  15.28791413541354 -0.28688129982998 -0.38911196149615
 6  15.53697779998000 -1.79348213401340 -0.83594087388739
 6  16.37107036103610  0.27256164226423  0.54080326502650
 6  17.81754745904590  0.53634175997600 -0.17997627752775
 6  18.72275767526753  1.33645549234924  0.63855621732173
 6  20.05432311211121  1.51263700830083  0.11687129072907
 6  20.04123435233523  2.27218286628663 -1.11987780918092
 6  21.14896277037704  2.12109647904790  1.10263696529653
 1 -4.04506476497650  3.64584296599660  1.42322684368437
 1 -10.08982273397340  3.94109169306931 -0.22114641724172
 1 -10.31375063686369 -2.39464951965197 -1.26267981548155
 1 -2.42460115081508 -0.84894455815582  2.18037527612761
 1 -2.29462910091009  1.74893338193819  1.14928929542954
 1 -2.05024874817482  0.62025751475148  3.56511672507251
 1 -2.70894568076808  2.41620107670767  3.44447901540154
 1 -3.91161214241424  1.02059642734273  3.84666855135514
 1 -2.25428795569557 -1.67418333873387 -0.45302028802880
 1 -2.13468767096710  0.27662975427543 -0.75549065066507
 1 -0.46391348534854  0.65491341484148  0.96016826872687
 1 -0.35573152685269 -1.26571954735474  1.24218709460946
 1 -4.89982214991499  6.11666684178418  0.41965374757476
 1 -6.19601427172717  6.67707750655066  1.53761845104510
 1 -5.21742497129713  5.51343651505151  2.27288096679668
 1 -9.51043854275427  5.73943687978798  0.13284112861286
 1 -8.80093073347335  8.20182877237724  0.29014960826083
 1 -7.12319735633563  7.55733630283028 -0.04388885948595
 1 -11.82721813461346  3.23384068936894 -2.03568986738674
 1 -13.15262047554755  1.82349798789879 -1.83700722442244
 1 -12.70464742614262  3.05127821322132 -0.44885638363836
 1 -12.22549507760776 -1.72196459465947 -1.09023923182318
 1 -13.54650065366537 -0.66486029902990 -1.28163552055205
 1 -13.15268573477348 -2.02404364356436 -3.28149114681468
 1 -12.67364753875388 -0.25668439433943 -3.74547212221222
 1 -11.62373572117212 -1.64661760576058 -3.30892000750075
 1 -8.83134403030303 -4.83495634393439 -2.05917349874987
 1 -8.04500820182018 -5.73717382558256 -0.68887311541154
 1 -9.29742190799080 -4.77054384138414 -0.27298555475548
 1 -3.30599073107311 -3.27577916241624 -0.44682133513351
 1 -1.27736882688269 -4.17424580188019  3.21940862786279
 1 -2.59913510091009 -5.50612125452545  3.27803502560256
 1 -1.15299672617262 -5.80270444754475  2.23830053295330
 1  2.91874654575458 -1.61241093099310 -1.54649872617262
 1  2.57885958615862 -0.02711979357936 -2.20934295409541
 1  4.31859108340834 -0.84020202640264  0.45387776397640
 1  4.25713664996500  1.50700179647965 -2.32157549984999
 1  5.64373767216722  2.19280367056706 -2.03920827542754
 1  5.77942326512651  0.73602393259326 -2.99598089738974
 1  6.67549057235724  1.24356058375838  0.30805830353035
 1  6.23193654165417 -0.48007125602560  0.84606561366137
 1  7.39340308240824 -1.43546461816182 -1.18497262596260
 1  7.61694322532253  0.22492936943694 -1.78049819671967
 1  8.91962806000600  0.92574519101910  0.09041300380038
 1  8.60515833863386 -0.43743209860986  0.89080369896990
 1  10.14958667016702 -0.36599183288329 -1.87964179477948
 1  9.34699119551955 -2.50471751605161 -2.10081504270427
 1  11.25780886558656 -2.33367988058806 -1.48257444344434
 1  10.10071754535454 -2.64364598719872 -0.35562765346535
 1  11.46358112031203  0.69531393889389  0.52934489788979
 1  11.34153456315632 -0.86292863096310  1.05556302930293
 1  12.60299603530353 -1.78719558095810 -0.58845718061806
 1  12.76254516051605 -0.00701122212221 -1.55683404720472
 1  13.75772727592759  0.96253950945094  0.33708036853685
 1  13.97196328662866 -0.53305574287429  1.43372854255426
 1  15.25831822392239  0.34865472587259 -1.22698235773577
 1  15.59100110111011 -2.44800152605261  0.13323572597260
 1  14.66525405720572 -2.22853104670467 -1.19887760816082
 1  16.74016207480748 -1.96480040864086 -1.46642875167517
 1  16.24828003770377  1.48900797349735  0.81597501850185
 1  16.45833753575358 -0.37614401010101  1.40633356505651
 1  18.44105329722973 -0.44150111391139 -0.68400440804080
 1  17.35171525272527  1.24489574807481 -0.97034051795180
 1  18.25846452925293  2.29455135473547  0.91890699159916
 1  18.78340461786178  0.67991160246025  1.53006935853585
 1  20.48654872157216  0.52139857565757 -0.12578482808281
 1  19.49294612791279  3.14813379827983 -0.96085635513551
 1  20.96883299719972  2.64494037193719 -1.51642289628963
 1  19.64813564676468  1.87977938023802 -1.97155757905791
 1  21.27437745304530  1.65226453025303  2.13776321792179
 1  22.18295293579358  2.21952048324832  0.67471173737374
 1  20.75824835743574  3.16212988918892  1.46418234943494

