%nproc=3
%Mem=2GB
# td=(NStates=10) iop(3/107=0140000000,3/108=0140000000) CAM-B3LYP/6-31G(d,p) 

TD

0 1
12 -7.22408407770777  0.58511675237524 -0.01083303470347
 6 -4.80652953405341 -1.88498060936094  0.55032066696670
 6 -4.85339464576458  2.84250857815782  1.17003046024602
 6 -9.40109469826983  3.08940133953395 -0.32726405940594
 6 -9.46453748134813 -1.67856803180318 -1.04971308630863
 7 -5.15733851545155  0.53644490499050  0.75316283668367
 6 -4.27005461076108 -0.63418403880388  0.76997890069007
 6 -2.81238219941994 -0.39799507160716  1.16805224642464
 6 -3.00209049824983  1.05284641714171  1.67930073647365
 6 -4.42355044174417  1.45500588098810  1.16914317551755
 6 -2.79065685668567  1.25052153945395  3.14750827692769
 6 -1.81441572247225 -0.58206221632163  0.14945427122712
 6 -0.44148240224022 -0.53459169056906  0.58149673257326
 6  0.50286966536654 -0.75966939903990 -0.56984863666367
 8  0.21205175487549 -1.19621102490249 -1.67541682198220
 8  1.84642166716672 -0.52648755555556 -0.18836305640564
 7 -7.11480908940894  2.62587399469947  0.30121527832783
 6 -6.08401553255326  3.41137209110911  0.83783176717672
 6 -6.42111010071007  4.81748237863786  0.85784354885489
 6 -7.87066766216622  4.80075996269627  0.45797270427043
 6 -8.16803735693569  3.38837912921292  0.14071441064106
 6 -5.56339212041204  5.92530362166217  1.50510703590359
 6 -8.71336054845485  5.92515758375838  0.40882090399040
 6 -8.33910310811081  7.30645672997300  0.25259099679968
 7 -9.12826786248625  0.67528400670067 -0.61910361566157
 6 -9.82787444644464  1.84356503910391 -0.77076220042004
 6 -11.14446918981898  1.42959394979498 -1.13052780238024
 6 -11.21271979267927  0.08727260456046 -1.35668493469347
 6 -9.93480336403640 -0.36515500360036 -1.07274657755776
 6 -12.26094433653365  2.46513879477948 -1.24380491139114
 6 -12.34379442514251 -0.68198926112611 -1.73777895509551
 6 -12.34132046404640 -1.16552043724372 -3.22086019141914
 7 -7.25010126222622 -1.38286764836484 -0.13267638633863
 6 -8.18666388868887 -2.22879881938194 -0.64540234613461
 6 -7.75605327282728 -3.61715589848985 -0.55509393839384
 6 -6.43651917391739 -3.51169548504850 -0.12579507160716
 6 -6.16117089528953 -2.17516367086709  0.18180980238024
 6 -8.56783712841284 -4.75104792369237 -1.20623017001700
 6 -5.36615315301530 -4.40916690199020  0.19320782068207
 8 -5.23651501330133 -5.59548220182018  0.15597163196320
 6 -4.14526793679368 -3.36489942404240  0.56985787778778
 6 -3.47074143834383 -3.66698278287829  1.92041322102210
 8 -3.70592424702470 -3.07337056985699  2.99577329262926
 8 -2.72842419031903 -4.77609576207621  1.83961204920492
 6 -2.22435507400740 -5.34155462476248  3.05487682468247
 6  2.84710848744874 -0.76121537923792 -1.13907928282828
 6  4.17673099549955 -0.45239908930893 -0.47265979467947
 6  5.02669627702770  0.43560688518852 -0.93254315451545
 6  5.12128954555456  1.31392592889289 -2.19947703880388
 6  6.45920237783778  0.45828463536354 -0.08858554475448
 6  7.57210494939494 -0.11137301920192 -0.89201887058706
 6  8.91315039743975  0.02965323182318  0.02138954475448
 6  10.18463935693569 -0.47819491779178 -0.75996239063906
 6  10.07264445064506 -1.91903123802380 -1.13519518101810
 6  11.40605172227223 -0.21527241784178  0.11264146284628
 6  12.72753992299230 -0.50199671557156 -0.72934347414741
 6  13.92901858965897 -0.10339710291029  0.16539375237524
 6  15.29092443644364 -0.30432304400440 -0.54015706600660
 6  15.62120622282228 -1.75605839163916 -0.75768304810481
 6  16.42851610561056  0.34441882798280  0.41696088078808
 6  17.83743944824483  0.44598272407241 -0.26452473237324
 6  18.77577297679768  1.30114196099610  0.67938029972997
 6  20.22407008680868  1.36780252485249  0.01612121572157
 6  20.18718894779478  2.08500414841484 -1.29465528692869
 6  21.08576645074508  2.06184055345535  1.13338003960396
 1 -4.12480273877388  3.62154053575357  1.62927744874487
 1 -10.04502825452545  3.86600418431843 -0.46533083568357
 1 -10.04497375917592 -2.45257531223122 -1.56314986248625
 1 -2.79291798249825 -1.05429509320932  2.01066830543054
 1 -2.23771340934093  1.67916640524052  1.15290965746575
 1 -1.76327005030503  1.19365485448545  3.40077029042904
 1 -3.18150293649365  2.38981843844384  3.38957352485248
 1 -3.54858583978398  0.53243761146115  3.76955083958396
 1 -1.87293982088209 -1.49856577697770 -0.63156814281428
 1 -2.11523572577258  0.17073916521652 -0.54814991659166
 1 -0.14946204020402  0.37446537003700  1.04695694759476
 1 -0.16222217591759 -1.07896087148715  1.56306918281828
 1 -4.79579174687469  6.18934410951095  0.82525430763076
 1 -6.12306697699770  6.79313911271127  1.82057674687469
 1 -5.09770299909991  5.31188636003600  2.48849252795279
 1 -9.71375887478748  5.81030396649665  0.51336918141814
 1 -8.92416305670567  8.03955254475447  0.07398799209921
 1 -7.15562059865987  7.52555312451245  0.00091562096210
 1 -12.19910532333233  3.20924823012301 -2.06874317271727
 1 -13.23931914541454  1.96145178327833 -1.45022854655466
 1 -12.40767772917292  3.04478756415642 -0.26689818781878
 1 -12.44361688978898 -1.61059345754575 -1.18928913681368
 1 -13.02024802840284 -0.24782859585959 -1.65904326132613
 1 -13.32208267446745 -1.70814205340534 -3.61791478917892
 1 -11.99351952595260 -0.46452517841784 -3.73408098309831
 1 -11.58752209980998 -1.88298124212421 -3.42717183268327
 1 -8.79162005790579 -4.38379122742274 -2.19433701510151
 1 -7.96432013301330 -5.55653576177618 -0.98389261736174
 1 -9.50429259505951 -4.85486227322732 -0.55450370657066
 1 -3.29500963296330 -3.41899348384839 -0.16403305630563
 1 -1.66796788678868 -4.56958533583358  3.69586627362736
 1 -3.06712189958996 -5.68737938033803  3.63079030113011
 1 -1.71043246974698 -6.32925710281028  2.82754945784578
 1  2.93331800290029 -1.76523621352135 -1.39570364666467
 1  2.99934163436344  0.07105002340234 -1.95905792559256
 1  4.57746697099710 -0.98438644484448  0.47576995319532
 1  4.13010394669467  1.50090118641864 -2.54975831813181
 1  5.34745804420442  2.27958234843484 -1.97644199879988
 1  5.75238056085609  0.99094942514251 -2.86814811411141
 1  6.62524554785479  1.50045627332733  0.22159965766577
 1  6.49730307830783 -0.13475672457246  0.76516752385239
 1  7.40419416151615 -1.16467753945395 -1.09621375007501
 1  7.73290482148215  0.42733961046105 -1.80128027492749
 1  9.22883898109811  1.01905452195220  0.27838180068007
 1  8.84604242704270 -0.43291164656466  0.86472109070907
 1  10.28513022452245  0.09559432573257 -1.94801863246325
 1  9.36276277267727 -2.34073111741174 -2.01448640984098
 1  11.05059814451445 -2.27050356295630 -1.57365355135514
 1  9.91408888248825 -2.54753637623762 -0.30041213191319
 1  11.46225098729873  0.85454986248625  0.40185214861486
 1  11.50153056275627 -0.97011935003500  1.04846231923192
 1  12.81418715441544 -1.67539440084008 -0.95570390529053
 1  12.79834874087409  0.07359683868387 -1.71384974877488
 1  13.71291279447945  0.93346660216022  0.31906856735674
 1  13.82210830113011 -0.80095253255326  1.02196736643664
 1  15.23341573367337  0.37822768316832 -1.44383404290429
 1  15.64278627962796 -2.24676140204020  0.11636403880388
 1  14.88848638043804 -2.01587978157816 -1.26102382278228
 1  16.55866392499250 -1.96572050065007 -1.25694780358036
 1  16.05172038173817  1.28554762746275  0.98327174817482
 1  16.47048875087509 -0.22086848254825  1.21067399909991
 1  18.16415560746075 -0.56146311011101 -0.34198020562056
 1  17.64808488968897  0.95661692019202 -1.38996248014802
 1  18.44755343814381  2.42103400300030  0.85827092799280
 1  18.88980525792579  0.73585719701970  1.56104245584558
 1  20.84386445314531  0.40790722652265 -0.29559180878088
 1  19.61286812011201  2.93604258915892 -1.35776604610461
 1  21.28943505740574  2.34318019591959 -1.35317657165717
 1  19.79796062926292  1.14994639693969 -2.12963338663866
 1  21.21253126842684  1.37268657245725  2.04004344594459
 1  22.14043868436844  2.05117364856486  0.86006027222722
 1  20.72090462306231  3.06904058025803  1.29168509970997

