%nproc=3
%Mem=2GB
# td=(NStates=10) iop(3/107=0140000000,3/108=0140000000) CAM-B3LYP/6-31G(d,p) 

TD

0 1
12 -7.14039570887089  0.70718895959596 -0.02066401780178
 6 -4.84398327942794 -2.00084219551955  0.59926556145615
 6 -4.84481378767877  2.88496282358236  1.29751320852085
 6 -9.40169475827583  3.06689908930893 -0.41184251725173
 6 -9.59367039463946 -1.80136031103110 -0.84017213221322
 7 -5.08401118271827  0.42882414291429  0.77145466586659
 6 -4.36992459775978 -0.74255487588759  0.87898980178018
 6 -2.93679464066407 -0.38980425252525  1.32505794699470
 6 -2.98159844904490  1.02841397389739  1.78740154655466
 6 -4.41105919261926  1.49366974737474  1.18307456865687
 6 -3.03222101310131  1.31327781508151  3.22173569966997
 6 -1.93954823572357 -0.64110812091209  0.20104943074307
 6 -0.47565581958196 -0.44276250765077  0.63580216311631
 6  0.43658303670367 -0.77121055315532 -0.51945359715972
 8  0.09735028472847 -1.13738514231423 -1.65307458775878
 8  1.72685971097110 -0.50443535033503 -0.20669488958896
 7 -7.13947155565557  2.57254866216622  0.31542669946995
 6 -6.10251738273827  3.35500645454545  0.95352333633363
 6 -6.50468845854586  4.77704833523352  0.96425418991899
 6 -7.77214781018102  4.79927981468147  0.40302720972097
 6 -8.18485903910391  3.45835612691269  0.06287662686269
 6 -5.60344612581258  5.90274136543654  1.34555108030803
 6 -8.60325953835384  5.98352342034203  0.32361238313831
 6 -8.32167136493649  7.26906299059906  0.25095083278328
 7 -9.10611564726473  0.61271775007501 -0.48536024132413
 6 -9.89967162616262  1.80299098169817 -0.71117624182418
 6 -11.25125986888689  1.51918290869087 -1.26495124472447
 6 -11.26947546824682  0.09986386368637 -1.30505977217722
 6 -9.94995487918792 -0.40232872097210 -0.93168247114712
 6 -12.30952919501950  2.42293457435744 -1.53845437633763
 6 -12.30893093879388 -0.84065512771277 -1.80898607580758
 6 -12.13868020002000 -1.18269215441544 -3.25724382978298
 7 -7.21608786088609 -1.35321468306831 -0.31460457915792
 6 -8.26364158645865 -2.24571051055106 -0.57660546644664
 6 -7.82117978547855 -3.53254743764376 -0.51438986798680
 6 -6.40593611561156 -3.51340565606561 -0.10378287038704
 6 -6.14810958915892 -2.13093924842484  0.09424104550455
 6 -8.72539288398840 -4.73285610451045 -0.84789433643364
 6 -5.27585412311231 -4.43188917421742  0.31286978687869
 8 -5.13707506930693 -5.60853350695070  0.25177121192119
 6 -4.18646205620562 -3.28199113321332  0.57958885088509
 6 -3.54893925812581 -3.68504458905891  1.90396157585759
 8 -3.80488414301430 -3.18394162696270  3.00761447674767
 8 -2.77424877277728 -4.75414356685669  1.76347443544354
 6 -2.18105074357436 -5.22528299759976  3.04843618061806
 6  2.67995177177718 -0.58697795549555 -1.24032940784078
 6  4.07981130353035 -0.30135398479848 -0.58031055975598
 6  5.09908351575158  0.47230055455546 -0.99795969616962
 6  5.01071848844884  1.32433696999700 -2.21600869196920
 6  6.43605006260626  0.35501430833083 -0.23152983918392
 6  7.56172391129113 -0.21126300820082 -1.08180784948495
 6  8.90811989438944 -0.24314404790479 -0.22541513571357
 6  10.22385327832783 -0.46511360966097 -0.99856625102510
 6  10.28477566376638 -1.99879921482148 -1.50367202870287
 6  11.46338745584558 -0.16379727032703 -0.01595139643964
 6  12.85741291029103 -0.42966948284828 -0.74234477427743
 6  14.07636332413241 -0.03805056825683  0.11270848384838
 6  15.37753309730973 -0.19369198089809 -0.50000305060506
 6  15.71937603980398 -1.47255004080408 -1.07611489128913
 6  16.43842709670967  0.37387177327733  0.46123530823082
 6  17.90537624192419  0.46629475527553 -0.14787306720672
 6  18.90213561306131  1.06745859265927  0.76297865956596
 6  20.30144782458246  1.28688443304330  0.21577118071807
 6  20.40372060096010  2.20220586858686 -0.98077389878988
 6  21.21614948904891  1.83024739413941  1.36525322692269
 1 -4.02317257575758  3.31464984668467  1.60331485248525
 1 -10.12839659135914  3.89868745264527 -0.57051135373537
 1 -10.37242650445044 -2.56575663036304 -1.49526307380738
 1 -2.71210990169017 -0.92177184088409  2.34678191679168
 1 -2.33226286428643  1.75645413401340  1.29481384788479
 1 -1.97012073537354  0.93064855385538  3.56326654005401
 1 -3.05351013721372  2.42564202080208  3.51086565406541
 1 -3.79629061026103  0.83305767346735  3.74156804130413
 1 -2.04452697959796 -1.66826274667467 -0.00731571757176
 1 -2.12724692689269  0.15841793309331 -0.53793889548955
 1 -0.11127822182218  0.58137606110611  0.95949820172017
 1 -0.29706566026603 -0.88686166156616  1.46167904380438
 1 -4.88837100480048  6.03214838993899  0.55206698889889
 1 -6.06679134943494  6.76738653745374  1.65493018221822
 1 -4.82808603740374  5.59127429882988  2.02327600630063
 1 -9.57798529742974  5.60621355745575  0.33016086058606
 1 -9.05528616901690  7.99392798229823  0.05188578187819
 1 -7.11435647224723  7.65181575077508  0.49586511591159
 1 -12.08436384918492  3.17316462176218 -2.28529482788279
 1 -13.31370658415841  2.08154379247925 -1.93911743544354
 1 -12.68633559495950  3.12562564796480 -0.81838333633363
 1 -12.11016354445445 -1.75825822402240 -1.11181138903890
 1 -13.42332833643364 -0.53903771677168 -1.79019637663766
 1 -12.90815128132813 -1.96554779397940 -3.55378837653765
 1 -12.18192836683668 -0.39084781068107 -3.84743231823182
 1 -11.00593394099410 -1.57235017901790 -3.38462757825783
 1 -8.82519341524153 -4.78327117541754 -1.93778135953595
 1 -8.36906060706071 -5.76805691389139 -0.35494972307231
 1 -9.54076624242424 -4.57353414041404 -0.09779803600360
 1 -3.38849898189819 -3.43107469196920 -0.30376702970297
 1 -1.59166025602560 -4.39615799309931  3.41740842784278
 1 -2.92730791819182 -5.53978462086209  3.60037725982598
 1 -1.45401682818282 -5.85801997909791  2.87562426532653
 1  2.64178884998500 -1.42467215711571 -1.89835391169117
 1  2.56576827702770  0.22088500690069 -2.17309932973297
 1  4.24420364466447 -1.00888889508951  0.18766114231423
 1  4.02835377167717  1.48830992729273 -2.62133547584758
 1  5.35934923332333  2.46179056925693 -2.16055040964096
 1  5.62279760256026  1.00797112731273 -3.00782208150815
 1  6.72900592389239  1.52662889058906 -0.05281778407841
 1  6.22807615561556 -0.15625887478748  0.87651865896590
 1  7.10596433853385 -1.14762583428343 -1.55598972767277
 1  7.68476000700070  0.26596347284728 -1.89330947784778
 1  8.90150624782478  0.83385600210021  0.34565852835284
 1  8.77109493229323 -0.83531188658866  0.59261387998800
 1  10.40035174667467  0.05907067336734 -1.74737856845685
 1  9.16936343274327 -2.16249329362936 -1.89458441964196
 1  11.12166525122512 -1.95128164076408 -2.29293547954795
 1  10.36107358095810 -2.76052767536754 -0.75438752945295
 1  11.46145090729073  0.77184159165917  0.31574353775378
 1  11.46200661036104 -0.99663200130013  0.93696116911691
 1  12.66516225192519 -1.31920878227823 -1.19725806070607
 1  12.96038494449445  0.21739121812181 -1.73127149094910
 1  13.82177368056806  0.93400665616562  0.60549721022102
 1  13.96313240354035 -0.74965740304030  0.92554772447245
 1  15.36311870397040  0.47218707910791 -1.30538019751975
 1  15.97213921492149 -2.08341506740674 -0.03310090769077
 1  14.72270980278028 -1.92442063566357 -1.41558927932793
 1  16.51640969956996 -1.64740866946695 -1.71293340214021
 1  16.02161737143714  1.42123119581958  0.52940636163616
 1  16.28976067806781 -0.16043243894389  1.49709264096410
 1  18.25096428832883 -0.48655561936194 -0.49611561916192
 1  17.63887396859686  1.25287654615462 -1.08238172207221
 1  18.74356303910391  2.04576647624762  1.29145424632463
 1  18.99536581398140  0.36507011831183  1.67031338293829
 1  20.80486055275528  0.32918935473547 -0.06923917351735
 1  20.33519035233524  3.35939492439244 -0.76951722122212
 1  21.40816693059306  2.37831370927093 -1.29889114311431
 1  19.70830166336633  1.89804120642064 -1.76905732903290
 1  21.21336135143514  1.21501080488049  2.18186762836284
 1  22.30974561506151  1.66250478167817  1.01321558775878
 1  20.99729226182618  2.88245192139214  1.57117304850485

