%nproc=3
%Mem=2GB
# td=(NStates=10) iop(3/107=0140000000,3/108=0140000000) CAM-B3LYP/6-31G(d,p) 

TD

0 1
12 -7.16850852015201  0.62922116281628  0.04043209180918
 6 -4.81106998809881 -1.91172328362836  0.40380601550155
 6 -4.90702000830083  2.72342666996700  1.35700915811581
 6 -9.41849643844384  3.11831423082308 -0.26400773377338
 6 -9.47226825442544 -1.74525470047005 -0.85025314031403
 7 -5.09780256185619  0.45789705020502  0.75406292669267
 6 -4.30213781908191 -0.61988260866087  0.76851875467547
 6 -2.88921988318832 -0.31295656775678  1.19151459265927
 6 -3.03899418861886  1.14859599209921  1.67130993739374
 6 -4.45294338103810  1.46965734613461  1.17968422962296
 6 -2.96921471247125  1.14521100840084  3.24363788988899
 6 -1.90528480938094 -0.46357036713671  0.12849217501750
 6 -0.44037229122912 -0.43607183858386  0.55227381028103
 6  0.50059943834383 -0.75522895499550 -0.53397504930493
 8  0.17712826252625 -1.25192659645965 -1.67420670097010
 8  1.74017104210421 -0.56795170197020 -0.15292951305131
 7 -7.11787939643964  2.63250465776578  0.34988014481448
 6 -6.11513864486449  3.34956591049105  0.97850583458346
 6 -6.42496048574858  4.73239386978698  0.97199496399640
 6 -7.73184377977798  4.82279216591659  0.41959886688669
 6 -8.22646319951995  3.49119941124112  0.15806614581458
 6 -5.47021280248025  5.97401849314931  1.16625315051505
 6 -8.57695690809081  5.99347441544154  0.28240826272627
 6 -8.23718291609161  7.27558364266427  0.08564430213021
 7 -9.21254629032903  0.72794927322732 -0.47275898119812
 6 -9.94534619361936  1.87012769536954 -0.63348847304730
 6 -11.21182592549255  1.43650464086409 -0.96907165676568
 6 -11.28813733443344  0.03835771307131 -1.14729399559956
 6 -9.94833471717172 -0.39989847794779 -0.84161346424642
 6 -12.35581382348235  2.28681096199620 -1.27126765766577
 6 -12.42209225492549 -0.74395545774577 -1.72172734993499
 6 -12.42825915791579 -1.10330421562156 -3.16477458285829
 7 -7.13807005910591 -1.38103746534653 -0.22224534323432
 6 -8.28449367166717 -2.17772371187119 -0.53376118201820
 6 -7.84792245974597 -3.60370455335534 -0.48993742274227
 6 -6.46151167316732 -3.51752606810681 -0.16690918301830
 6 -6.15295007320732 -2.13993014751475 -0.00503888248825
 6 -8.51856220092009 -4.84314713361336 -0.64311385838584
 6 -5.31765830353035 -4.34112009730973  0.06418491839184
 8 -5.09016037783778 -5.53173582718272  0.14398043284328
 6 -4.10820423042304 -3.24684761886189  0.51723261526153
 6 -3.43339770397040 -3.67481356595660  1.79672085178518
 8 -3.60267392199220 -3.05342857565757  2.82860657595760
 8 -2.63254460236024 -4.70372852535253  1.63309139713971
 6 -2.07333997249725 -5.22644311361136  2.80961229822982
 6  2.77757153375338 -0.63982324002400 -1.15631100600060
 6  4.10018334073407 -0.43027687708771 -0.47475000370037
 6  5.13882749014901  0.37125044954495 -1.11193109330933
 6  5.01798921552155  0.99418395469547 -2.42830992209221
 6  6.45838229582958  0.44032283918392 -0.41690837703770
 6  7.70418815771577 -0.22211409330933 -1.06868653735374
 6  8.84652373477348 -0.04554428792879 -0.19707230143014
 6  10.22174306730673 -0.49056615491549 -1.00423681808181
 6  10.09945713191319 -1.89636897179718 -1.49962162366237
 6  11.37803892099210 -0.25251614221422 -0.05833563486349
 6  12.79461663066307 -0.60038655455546 -0.69955049484949
 6  13.96187187498750 -0.11506827002700  0.16827404040404
 6  15.33480882488249 -0.35477808950895 -0.40423347364736
 6  15.72468657085709 -1.76492927872787 -0.67468474827483
 6  16.44056731073107  0.35891027712771  0.47842702740274
 6  17.83416912121212  0.53844196999700 -0.12619089898990
 6  18.77444284378438  1.25827767456746  0.76256861856186
 6  20.25995367516752  1.43925967056706  0.28352795639564
 6  20.37262749164916  2.14943059105911 -0.96750257165717
 6  21.01886976107611  2.04938930833083  1.44884158575858
 1 -4.08435869436944  3.32955133683368  1.65786030703070
 1 -10.13374712641264  3.82889047294730 -0.43234753735374
 1 -10.38705796759676 -2.48705876057606 -1.17473102060206
 1 -2.48080677137714 -0.97792745644564  1.91102834143414
 1 -2.30288992699270  2.00321881048105  1.33151751825183
 1 -1.80456417971797  1.23455894489449  3.58142835623562
 1 -3.45689047524753  2.19910936753675  3.46340090759076
 1 -3.68693967516752  0.53013738143814  3.65093897839784
 1 -2.04416694359436 -1.57906382678268 -0.28976396239624
 1 -1.93026722892289  0.14066615791579 -0.68825392699270
 1 -0.31157825182518  0.51071899539954  1.26650890279028
 1 -0.31466742044204 -1.26680965636564  1.32407528342834
 1 -4.81039320702070  6.07327250235024  0.24675645784579
 1 -5.92492716301630  6.83788358715872  1.66244093329333
 1 -4.74449767856786  5.51903707510751  1.66387006570657
 1 -9.72266976587659  5.76574951105111  0.43382122662266
 1 -8.82944358475848  8.08198678817882  0.19974056735674
 1 -7.08583361996200  7.55107567676768 -0.03465793639364
 1 -12.37419283208321  2.81741904720472 -2.27401369976998
 1 -13.27399261276127  1.74666030413041 -1.27965148884889
 1 -12.43763072447245  3.23389647504750 -0.67656915491549
 1 -12.50691321942194 -1.68464086228623 -1.33870407830783
 1 -13.42211821542154 -0.28999281228123 -1.43670102710271
 1 -13.58649911611161 -1.44904614381438 -3.29448244594459
 1 -12.21847202120212 -0.22807153305330 -4.03619119411941
 1 -11.78463181078108 -1.96778972297230 -3.25831494699470
 1 -8.94503539943994 -4.69851269956996 -1.71822940434043
 1 -7.91160486148615 -5.68156826502650 -0.71454568266827
 1 -9.22929509530953 -5.00472725972597  0.06865860966097
 1 -3.42964309630963 -3.41070265476548 -0.32838949194919
 1 -1.68322941294129 -4.31196957425743  3.33204989198920
 1 -2.95844103150315 -5.59312995539554  3.52844006610661
 1 -1.39274070057006 -5.90132430953095  2.53731043394339
 1  2.67191186228623 -1.66627631753175 -1.59841391769177
 1  2.39798149834984  0.09821273967397 -1.99467148694870
 1  4.31887111141114 -1.19139714591459  0.44734711091109
 1  3.99797073337334  1.22606370267027 -2.71851519381938
 1  5.62485578397840  1.95966035623562 -2.47911226582658
 1  5.52009733253325  0.45928625882588 -3.38765006430643
 1  6.41753477677768  1.69148537623762 -0.14131663396340
 1  6.18485183318332  0.20127687878788  0.61908291539154
 1  7.36389013111311 -1.20027109880988 -1.39375350405041
 1  7.77543907490749  0.35340221672167 -1.87173732063206
 1  8.90345644284428  0.94516713321332  0.24814877737774
 1  8.73577139993999 -0.70938929432943  0.60481510011001
 1  10.43129484098410  0.20225499179918 -1.81131496209621
 1  9.05726222262226 -2.01367841214121 -2.02008696989699
 1  10.94809789448945 -2.32977949054906 -2.34496068206821
 1  10.20319779337934 -2.54420604320432 -0.60921301200120
 1  11.33544830703070  0.90931533903390  0.40094205760576
 1  11.38948935863586 -1.05553789188919  0.68472594559456
 1  12.93406914261426 -1.50965782718272 -1.07640597549755
 1  13.03586249224922 -0.03192371337134 -1.63270163396340
 1  13.66903840704070  0.89964321982198  0.56531319181918
 1  14.12303839413941 -0.63354579187919  1.12903807350735
 1  15.54775716781678  0.26250611101110 -1.33262292179218
 1  15.69923192419242 -2.42935966186619  0.43214561696170
 1  14.82696022782278 -2.12282047564756 -1.18992671307131
 1  16.70473853245325 -1.84593852245225 -1.11865397419742
 1  16.18862407210721  1.32676174887489  0.77041046204620
 1  16.58717041904190 -0.06714311001100  1.39347227892789
 1  18.06518571047105 -0.51977894169417 -0.63133914151415
 1  17.53625370657066  1.05236649514952 -1.12437592149215
 1  18.36268495129513  2.30998289788979  0.93745884678468
 1  18.71756803420342  0.71497510881088  1.83305965756576
 1  20.43899396609661  0.37763419921992  0.18186593699370
 1  20.16207304060406  3.15531451635163 -0.83338360786079
 1  21.29588570247025  2.11779765766577 -1.29401065506551
 1  19.80180101330133  1.65021642394239 -1.79438986228623
 1  20.98437845314531  1.68614791859186  2.36227566916692
 1  22.00164480498050  2.20384891609161  1.29893415961596
 1  20.93276580918092  3.25966964316432  1.35921185238524

