%nproc=3
%Mem=2GB
# td=(NStates=10) iop(3/107=0140000000,3/108=0140000000) CAM-B3LYP/6-31G(d,p) 

TD

0 1
12 -7.18290996029603  0.44087232793279  0.17156520512051
 6 -4.88598747984798 -1.94173628492849  0.36307194209421
 6 -4.87172647894790  2.83893822112211  1.20091354855486
 6 -9.46453104190419  3.11809420882088 -0.25427676067607
 6 -9.67809883748375 -1.77708788378838 -0.76139425442544
 7 -5.14828761036104  0.42711397189719  0.61281880228023
 6 -4.37899550485048 -0.68599922032203  0.68540044284428
 6 -2.89233019421942 -0.37768304040404  1.12513795499550
 6 -3.13464375357536  1.07165829832983  1.57572037843784
 6 -4.45105319201920  1.49903028342834  1.13756001720172
 6 -3.02581037203720  1.27789427672767  3.15772929902990
 6 -1.81388566946695 -0.55409942004200  0.10079940574057
 6 -0.43407166116612 -0.36906513791379  0.48692727562756
 6  0.55704508290829 -0.56078951105111 -0.69298094989499
 8  0.15521607130713 -0.96502790659066 -1.80238951925193
 8  1.85279230423042 -0.37891279807981 -0.35921014111411
 7 -7.14183179167917  2.54715612291229  0.39176433323332
 6 -6.16986411741174  3.30415136903690  0.81088907290729
 6 -6.39046703640364  4.76398702910291  0.79384714921492
 6 -7.70213080848085  4.86180606730673  0.50588749574958
 6 -8.16104665786579  3.47919821112111  0.18363870307031
 6 -5.45260104130413  5.80371146244624  1.18358488368837
 6 -8.64997420982098  6.02402747074707  0.24251427332733
 6 -8.12571176897690  7.26897298159816 -0.00976523882388
 7 -9.17661269696970  0.76065254355436 -0.65415712101210
 6 -9.96174783378338  1.80061074367437 -0.65827095129513
 6 -11.22476721962196  1.47907889828983 -1.09146389598960
 6 -11.36067458815882  0.07976185348535 -1.10021928812881
 6 -9.99624950865086 -0.35478396649665 -0.81025032793279
 6 -12.36587482958296  2.49165144604460 -1.23601413231323
 6 -12.36401644734473 -0.76572763496350 -1.51190636783678
 6 -12.43916024802480 -1.15466935213521 -2.98732683808381
 7 -7.39956620872087 -1.47200656225623 -0.03385650435043
 6 -8.42002722502250 -2.24259019851985 -0.47392519841984
 6 -7.88922659015902 -3.66120030293029 -0.52926135513551
 6 -6.49140466246625 -3.58992330783078 -0.20993348544855
 6 -6.25039981818182 -2.24997115161516  0.01415303670367
 6 -8.73978432313231 -4.79460227912791 -0.81784133113311
 6 -5.28441497919792 -4.43538952425243  0.02657115701570
 8 -5.09384074587459 -5.60069272287229  0.10071610641064
 6 -4.13730714071407 -3.34464739883988  0.40306119811981
 6 -3.58681304550455 -3.67986407100710  1.78999017871787
 8 -3.79324297889789 -3.09730296309631  2.83478719401940
 8 -2.89809115701570 -4.83982213471347  1.78045613361336
 6 -2.30734337283728 -5.21575204450445  2.96803814081408
 6  2.78245202180218 -0.61151040874087 -1.37398277317732
 6  4.13691701410141 -0.46640048944894 -0.61452398109811
 6  5.16920052745275  0.33577690219022 -0.86612651285129
 6  5.08231564816482  1.32941747804780 -1.96666375747575
 6  6.48210466806681  0.38382718961896 -0.16487317351735
 6  7.72265000390039 -0.16811869376938 -0.94636430513051
 6  9.02899198159816 -0.07924765826583 -0.08956155035504
 6  10.31369226222622 -0.41166826512651 -0.77345373977398
 6  10.27746493269327 -1.97555689058906 -1.20423208470847
 6  11.48440955805581 -0.15768665926593  0.08451865056506
 6  12.91222839183918 -0.50005652155216 -0.53453399319932
 6  14.05469115691569 -0.09499626282628  0.27493470647065
 6  15.41447679167917 -0.21271388308831 -0.46615966626663
 6  15.74540864306431 -1.65663844964496 -1.01493877367737
 6  16.49951320532053  0.36672105820582  0.36579576427643
 6  17.93357906220622  0.44220234603460 -0.13583186308631
 6  18.87972337183718  1.32526437323732  0.72134449614961
 6  20.31071875167517  1.28965471007101  0.20997060066007
 6  20.46196642554255  2.06568221622162 -1.17200302170217
 6  21.19401727582758  2.01084545394539  1.32498920052005
 1 -4.23871412991299  3.41039942164216  1.74556907790779
 1 -10.17735148684869  3.88246583048305 -0.29717402000200
 1 -10.49688895069507 -2.45039509420942 -0.96210975847585
 1 -2.68389708040804 -0.96574623832383  1.84956219481948
 1 -2.29945958395840  1.80568905750575  0.97100146664666
 1 -2.13379710301030  0.87002249124913  3.46074628802880
 1 -2.77467225342534  2.51362081868187  3.32632720022002
 1 -3.80824180538054  0.73105747344734  3.78618250275027
 1 -1.91644417131713 -1.51064698509851 -0.35894088008801
 1 -1.98860306250625  0.01091318261826 -0.80573567516752
 1 -0.27445453945395  0.69434735823582  0.87498975087509
 1 -0.27736369006901 -1.14771774717472  1.30731360726073
 1 -4.83908607630763  6.00545572067207  0.44716649884988
 1 -6.20308497879788  6.53509330813081  1.57346203540354
 1 -4.77455068386839  5.39261443284328  2.06500017871787
 1 -9.63628112701270  5.91021395749575  0.50076792129213
 1 -8.87172781318132  8.09351794129413 -0.17659706640664
 1 -7.18015305190519  7.41952252145215 -0.23108757935794
 1 -12.34821023382338  3.21809911521152 -2.07126342474247
 1 -13.31419663316331  1.95330096819682 -1.29599312301230
 1 -12.68464542594259  3.18111119651965 -0.36217771577158
 1 -12.19145167326733 -1.84919731793179 -1.04481468936894
 1 -13.28116412001200 -0.51155496849685 -1.08060541754175
 1 -13.19667013321332 -1.72614385358536 -3.25195819351935
 1 -12.26231640564056 -0.24638336423642 -3.39219679467947
 1 -11.48466181378138 -1.75849879387939 -3.19331844734473
 1 -9.19138003390339 -4.57112996129613 -1.81545912731273
 1 -8.12551625262526 -5.55774588278828 -0.80916514461446
 1 -9.65255742154215 -4.84479126612661 -0.15210346654665
 1 -3.22052218421842 -3.52945452995300 -0.25344199719972
 1 -1.70142123212321 -4.40330870817082  3.43630031703170
 1 -3.01471665906591 -5.72398304070407  3.57313453555356
 1 -1.65443687018702 -6.10726490359036  2.81038774167417
 1  2.77033170427043 -1.47581727162716 -2.00600467676768
 1  2.66881858205821  0.25649856825683 -2.17898991879188
 1  4.32359158345835 -1.39068707490749  0.10620299649965
 1  3.94084502080208  1.51346244254425 -2.27073041534153
 1  5.51637493589359  2.28671306150615 -1.64120847544754
 1  5.63605892869287  1.08463879407941 -2.86702800210021
 1  6.78886190949095  1.40558678637864  0.19568706640664
 1  6.54327767576758 -0.04431768066807  0.79202020912091
 1  7.53510725282528 -1.22861393309331 -1.44159828852885
 1  7.95997752875288  0.43476035253525 -1.77474762166217
 1  9.16974307150715  0.96337895439544  0.37994195669567
 1  8.93555137793779 -0.78535689108911  0.84562918151815
 1  10.28902061356136  0.27569233553355 -1.62044587518752
 1  9.21095759215922 -2.42387943224322 -1.62066702790279
 1  11.11867495219522 -2.12285879847985 -1.72928911491149
 1  10.23961143474348 -2.60932255485549 -0.38114020472047
 1  11.50809557175718  1.10497490499050  0.21127309070907
 1  11.37647805750575 -0.59404174227423  1.24418189118912
 1  12.79047478317832 -1.68141500290029 -0.86820515541554
 1  13.00455936193619  0.01106058505851 -1.62513087688769
 1  14.08706020922092  0.90986424192419  0.88325498599860
 1  14.08437452775278 -0.68873131043104  1.31928709840984
 1  15.19780217231723  0.41739159955996 -1.17970763026303
 1  15.93547554855486 -2.12835956185619  0.02703510591059
 1  14.76975450725073 -2.12525071867187 -1.62910063046305
 1  16.62601065966597 -1.76025995459546 -1.74934704350435
 1  16.15958116781678  1.35180425312531  0.79005242624262
 1  16.44660636263627 -0.23611000670067  1.38425135683568
 1  18.34231342324232 -0.58571553535354 -0.23859986758676
 1  18.02657273847385  0.82281353985399 -1.10409389328933
 1  18.37055573837383  2.19487138673867  0.60146524742474
 1  18.85478175557556  1.09320293159316  2.00374672627263
 1  20.57405747244724  0.27876431223122  0.05649339973997
 1  20.18393522682268  3.06903588848885 -1.19580985048505
 1  21.43317943184319  2.02123800170017 -1.59451070507051
 1  19.94593542674267  1.42113351565157 -1.89381980528053
 1  21.00779079437944  1.62288159195920  2.29846928852885
 1  22.32847748824883  1.96940547174717  0.98524279047905
 1  21.04591712431243  3.14875855205521  1.52223815501550

