%nproc=3
%Mem=2GB
# td=(NStates=10) iop(3/107=0140000000,3/108=0140000000) CAM-B3LYP/6-31G(d,p) 

TD

0 1
12 -7.21486315561556  0.70442868356836  0.15256330493049
 6 -4.90400928202820 -2.02931504280428  0.40489612451245
 6 -4.87920722702270  2.80765509280928  1.22014547174717
 6 -9.47590217901790  3.13856625602560 -0.40524185718572
 6 -9.52242326992699 -1.70001017601760 -0.94034214921492
 7 -5.11681446304631  0.43465472597260  0.71650917131713
 6 -4.33794139943994 -0.76286690709071  0.75672757555756
 6 -2.92642360356036 -0.36788206030603  1.14958039923992
 6 -3.08707899709971  0.99107023952395  1.62184499089909
 6 -4.41373946064606  1.44797517791779  1.08618487968797
 6 -2.95240303130313  1.09423591089109  3.19413293939394
 6 -1.89866414731473 -0.70927493759376  0.10808013381338
 6 -0.43509176317632 -0.61707993939394  0.56282486538654
 6  0.60375975437544 -0.81429486158616 -0.52478413021302
 8  0.23344389408941 -1.09865126892689 -1.69345862616262
 8  1.78167519251925 -0.52017692449245 -0.12181640174017
 7 -7.20272788128813  2.62781418871887  0.37786294309431
 6 -6.08677580858086  3.38001895579558  0.84315229922992
 6 -6.44924291399140  4.78486911731173  0.94776254075408
 6 -7.73650424582458  4.89674956165617  0.47925483248325
 6 -8.20762131533153  3.55961625292529  0.14171451065107
 6 -5.49494527572757  5.93599469076908  1.39955648084808
 6 -8.53426263866387  6.04512958095810  0.32235225712571
 6 -8.16132533033303  7.29588567286729  0.19615535323532
 7 -9.16155119081908  0.68790526882688 -0.47964967026703
 6 -9.83795545454545  1.87389807240724 -0.65012013621362
 6 -11.18021276417642  1.51045203560356 -1.24196894649465
 6 -11.27840636133613  0.14491836913691 -1.42020128632863
 6 -9.98389827352735 -0.36700518861886 -0.83391269416942
 6 -12.18987722982298  2.56376865776578 -1.56573710461046
 6 -12.37985803150315 -0.59337039923992 -1.91501667886789
 6 -12.24965129712971 -1.09491337653765 -3.39510761616162
 7 -7.28383463556356 -1.34784414601460 -0.14821794049405
 6 -8.33227845014502 -2.23046898639864 -0.53416122202220
 6 -7.88898656615661 -3.59488367126713 -0.38965739473947
 6 -6.63122864486449 -3.55414973047305 -0.04015650775078
 6 -6.26370114831483 -2.14110026452645  0.02643426482648
 6 -8.69817016171617 -4.91691451035103 -0.70051959895990
 6 -5.47294383208321 -4.38482446774678  0.19705820572057
 8 -5.32919428122812 -5.61638429202920  0.19232526732673
 6 -4.27853126312631 -3.33890682478248  0.57418831083108
 6 -3.65683004720472 -3.64584066866687  1.92719389908991
 8 -3.76620027462746 -3.11480471327133  3.01788550385039
 8 -2.89678102600260 -4.81266941944194  1.72091017901790
 6 -2.07718035653565 -5.28492896219622  2.80833217021702
 6  2.88316209280928 -0.83855311301130 -1.11455683058306
 6  4.17791111351135 -0.64835868526853 -0.48821134983498
 6  5.17126073347335  0.15937926242624 -0.87101700190019
 6  5.05216263286329  0.93115765206521 -2.14247133823382
 6  6.50347680528053  0.30752955985599 -0.05174186038604
 6  7.71216895579558 -0.03146502840284 -0.93624329302930
 6  8.96619570197020 -0.18003773727373 -0.00928352255226
 6  10.16152704570457 -0.67038413671367 -0.73136953135314
 6  10.09317650385039 -2.08811814671467 -1.15453711521152
 6  11.58992010911091 -0.29866075667567 -0.00979078037804
 6  12.85264243324332 -0.56468298419842 -0.74422496229623
 6  14.09376506430643 -0.03847061026103 -0.02002478947895
 6  15.47352269626963 -0.01723433513351 -0.69790284058406
 6  15.76993109530953 -1.45883866966697 -1.11721900170017
 6  16.42600585458546  0.58167255335534  0.36475566026603
 6  17.80404610891089  0.78637676347635 -0.22950123002300
 6  18.81552695219522  1.46022786958696  0.71404376607661
 6  20.27230491029103  1.42761850645065  0.17119672327233
 6  20.45462569146915  2.23058870687069 -1.11546736813681
 6  21.16122399649965  1.92877724712471  1.28366506810681
 1 -4.18206846534653  3.44089247094709  1.77493201420142
 1 -10.28391214291429  3.94620220412041 -0.35783008560856
 1 -10.08198746054605 -2.45365542024202 -1.21197474497450
 1 -2.72667135783578 -0.95429509320932  2.11922916151615
 1 -2.19114875287529  1.57971646024602  1.25976034253425
 1 -1.86032975627563  0.67246273527353  3.46991720512051
 1 -2.82772755895590  2.21793124972497  3.41864643214321
 1 -3.66970795199520  0.68109247694769  3.83249713421342
 1 -1.97278980588059 -1.63480940134013 -0.18136312231223
 1 -2.09933413561356 -0.03594150285029 -0.63696879847985
 1 -0.16021311531153  0.39310723422342  1.14210646254625
 1 -0.42193814751475 -1.38138111351135  1.45771864776478
 1 -4.92999516721672  6.40940611571157  0.61702348454845
 1 -6.20436510681068  6.61852165096510  2.16023071227123
 1 -4.74475770457046  5.56651182258226  2.01461514021402
 1 -9.56489398829883  5.92032496859686  0.44971281578158
 1 -8.97505814621462  8.07271586108611  0.31100169346935
 1 -7.15088012461246  7.50426099529953  0.15273080248025
 1 -11.85189060186019  3.19506681198120 -2.46290258865887
 1 -13.27561277477748  2.07788342644264 -1.97102062576258
 1 -12.16401336273627  3.19875296069607 -0.66037753575358
 1 -12.38677120522052 -1.65368776697670 -1.41722193009301
 1 -13.36219222282228 -0.08826263926393 -1.93170052705271
 1 -13.37083754995500 -1.58304954415442 -3.63446644434443
 1 -12.10981115511551 -0.12841156705671 -3.89702727772777
 1 -11.27346069366937 -1.82895583958396 -3.44544365986599
 1 -9.21769266516652 -4.62713556185619 -1.74051163256326
 1 -7.87385108610861 -5.83750385858586 -0.87092132023202
 1 -9.52367453325332 -4.99654644164416 -0.04139239543954
 1 -3.43067319931993 -3.60972255675568 -0.15763241624162
 1 -1.70947203720372 -4.29016739403940  3.20497718471847
 1 -2.84710989838984 -5.67771841424142  3.52354957705771
 1 -1.30246167266727 -6.00931510861086  2.66754345724573
 1  2.54000867196720 -1.71061075097510 -1.57328140444044
 1  2.47827952815281 -0.12864994659466 -1.84397641744174
 1  4.47761698599860 -1.17085509170917  0.50319269546955
 1  4.06363730003000  1.19453054935494 -2.47078042034203
 1  5.38188148654866  1.94516890709071 -2.05601995659566
 1  5.63336865966597  0.45084541474147 -2.83953525282528
 1  6.55907893119312  1.40868709640964  0.28637613531353
 1  6.30052340034003 -0.39405265416542  0.77495850295029
 1  7.50117385948595 -1.08095916761676 -1.32447657635764
 1  7.84421595259526  0.56292316881688 -1.79234938183818
 1  9.11378747594759  0.75721833833383  0.46841080358036
 1  8.57860568336834 -0.93632198759876  0.85320993959396
 1  10.11200291179118 -0.14815004870487 -1.65804963556356
 1  9.12784928132813 -2.49408645294529 -1.56886184738474
 1  10.87198028272827 -2.31986849944994 -1.76614280028003
 1  10.34440191379138 -2.82743436603660 -0.12982507320732
 1  11.55275003720372  0.74051845934594  0.30757272067207
 1  11.75866627632763 -0.92191452955295  0.90738821182118
 1  13.09467520322032 -1.41380824222422 -1.02935127002700
 1  13.01184009000900  0.03609308830883 -1.70687905170517
 1  13.96836834003400  0.91128438393839  0.69409607010701
 1  14.13125921622162 -0.75680811811181  0.73397856755676
 1  15.22594498659866  0.59776963736374 -1.41871153065307
 1  15.58327032803280 -2.25577230313031 -0.18476607420742
 1  15.20355788758876 -1.77597579117912 -1.96941466186619
 1  16.90449850845085 -1.47484141274127 -1.44686679547955
 1  16.04469967966797  1.59946901960196  0.73366678767877
 1  16.34427612961296  0.07875147944794  1.41522445414541
 1  18.24393358525853 -0.29761672547255 -0.54058006560656
 1  17.80316039723973  1.34619587808781 -1.11918540244024
 1  18.39193787658766  2.44042594219422  1.16544164506451
 1  18.95470174757476  0.95636924822482  1.49004535613561
 1  20.56093616031603  0.37670410621062 -0.10099234883488
 1  20.30492732603260  3.19569855475548 -1.01729199869987
 1  21.41860797469747  2.14719059695970 -1.49127038103810
 1  20.02620345354535  1.79170057235724 -1.92082250555056
 1  21.02634264956496  1.57677698149815  2.46511595319532
 1  22.32947758825883  2.05338386958696  1.08548281448145
 1  21.10978351095110  3.10416409260926  1.41123705490549

