--Link1--
%Mem=30GB
%CPU=0-29
%Chk=cla-s1.chk
#n wB97XD/Def2TZVP Opt Td

cla-s1

  0  1
Mg,-8.951706686131388,0.45576300000000003,0.0863
C,-6.680458686131387,-2.128096,0.505976
C,-6.598317686131387,2.662419,1.178948
C,-11.200978686131387,2.964068,-0.395247
C,-11.357643686131388,-1.8727449999999999,-0.891951
N,-6.928311686131387,0.26869200000000004,0.72176
C,-6.166150686131387,-0.8789699999999999,0.801053
C,-4.746417686131387,-0.576422,1.233309
C,-4.846354686131387,0.892582,1.707207
C,-6.1962766861313865,1.3330870000000001,1.166061
C,-4.776815686131387,1.0314050000000001,3.236854
C,-3.741326686131387,-0.7805099999999999,0.081897
C,-2.2915316861313872,-0.627922,0.536177
C,-1.3078556861313873,-0.8541829999999999,-0.592099
O,-1.6007916861313871,-1.2026249999999998,-1.716069
O,-0.0446076861313871,-0.621018,-0.186124
N,-8.902189686131388,2.467499,0.330759
C,-7.837185686131387,3.2119240000000002,0.781239
C,-8.179539686131386,4.610962,0.797413
C,-9.490770686131388,4.701546,0.348736
C,-9.923348686131387,3.34021,0.060014
C,-7.258284686131387,5.724861,1.178448
C,-10.318543686131386,5.876901999999999,0.143875
C,-10.184523686131387,7.078100999999999,0.729407
N,-10.918212686131387,0.5296540000000001,-0.544261
C,-11.663760686131386,1.676355,-0.671865
C,-13.009096686131388,1.345153,-1.131403
C,-13.053751686131386,-0.015859999999999957,-1.269717
C,-11.732587686131387,-0.5184679999999999,-0.897987
C,-14.089246686131387,2.347184,-1.385473
C,-14.190694686131387,-0.8691639999999999,-1.746694
C,-14.059534686131387,-1.278479,-3.223488
N,-9.048999686131387,-1.5420449999999999,-0.163249
C,-10.095360686131388,-2.374947,-0.544201
C,-9.668225686131388,-3.764888,-0.517002
C,-8.340718686131387,-3.720581,-0.109183
C,-8.011306686131388,-2.350844,0.091646
C,-10.495228686131387,-4.959418,-0.856169
C,-7.173994686131387,-4.534768000000001,0.190259
O,-7.028700686131387,-5.7418320000000005,0.180514
C,-6.013597686131387,-3.495928,0.556784
C,-5.396855686131387,-3.860975,1.890315
O,-5.600789686131387,-3.296823,2.946418
O,-4.585095686131387,-4.9242170000000005,1.759625
C,-4.0290536861313875,-5.418343,2.985996
C,0.9781723138686129,-0.837513,-1.194828
C,2.302524313868613,-0.6177229999999999,-0.544372
C,3.296463313868613,0.17431800000000006,-0.97123
C,3.2341203138686128,1.032845,-2.20865
C,4.598589313868613,0.23343800000000006,-0.204756
C,5.806850313868613,-0.32492199999999993,-0.976713
C,7.094260313868613,-0.28224099999999996,-0.148976
C,8.366770313868614,-0.7237699999999999,-0.8928
C,8.288610313868613,-2.1916029999999997,-1.33034
C,9.604738313868612,-0.451491,-0.020375
C,10.954021313868614,-0.660067,-0.714949
C,12.138658313868612,-0.273259,0.175884
C,13.521466313868613,-0.35956599999999994,-0.493475
C,13.868666313868614,-1.796519,-0.901737
C,14.591449313868614,0.24442500000000003,0.432653
C,15.985499313868614,0.39230200000000004,-0.18473
C,16.96719031386861,1.108813,0.747433
C,18.41333231386861,1.195273,0.23294
C,18.52291831386861,2.006547,-1.063041
C,19.33070631386861,1.782599,1.3106
H,-5.864988686131387,3.367084,1.559042
H,-11.917390686131387,3.7668530000000002,-0.534738
H,-12.114382686131387,-2.5950509999999998,-1.181806
H,-4.475751686131387,-1.238375,2.065093
H,-4.053960686131387,1.508987,1.26351
H,-3.7977596861313874,0.7085340000000001,3.606626
H,-4.937532686131387,2.06737,3.549778
H,-5.5406186861313875,0.40805500000000006,3.713148
H,-3.8674336861313874,-1.7736939999999999,-0.359929
H,-3.954933686131387,-0.06659999999999996,-0.722654
H,-2.094336686131387,0.3637250000000001,0.96137
H,-2.054420686131387,-1.342736,1.335417
H,-7.456846686131387,6.614477999999999,0.571687
H,-7.373910686131387,6.020784,2.229875
H,-6.210177686131387,5.446917999999999,1.032674
H,-11.136025686131386,5.755777999999999,-0.566473
H,-10.857986686131387,7.8923879999999995,0.482243
H,-9.429302686131388,7.2812339999999995,1.480397
H,-13.813893686131387,3.0381270000000002,-2.191685
H,-15.025646686131386,1.862174,-1.672718
H,-14.288296686131387,2.956257,-0.495605
H,-14.258974686131387,-1.771174,-1.124991
H,-15.135632686131387,-0.33329699999999995,-1.602456
H,-14.896631686131387,-1.913781,-3.530419
H,-14.044566686131386,-0.39568899999999996,-3.870216
H,-13.130229686131386,-1.83013,-3.397218
H,-10.862437686131386,-4.915394,-1.88937
H,-9.904771686131387,-5.870869000000001,-0.740449
H,-11.376833686131388,-5.035918000000001,-0.207313
H,-5.2434386861313875,-3.634346,-0.212619
H,-3.4247476861313872,-4.648268000000001,3.472824
H,-4.824250686131387,-5.725153000000001,3.669623
H,-3.4134186861313873,-6.272554,2.706389
H,0.870828313868613,-1.864174,-1.565513
H,0.7869633138686127,-0.17124999999999996,-2.039425
H,2.4565093138686134,-1.196264,0.365998
H,2.2282613138686127,1.114171,-2.625143
H,3.592054313868613,2.045359,-1.985616
H,3.8856913138686133,0.6376890000000001,-2.997431
H,4.8095373138686135,1.279792,0.063861
H,4.492655313868613,-0.31703499999999996,0.738045
H,5.580148313868613,-1.353672,-1.282428
H,5.955791313868613,0.24856800000000004,-1.901771
H,7.240933313868613,0.744623,0.215719
H,6.970168313868614,-0.906875,0.748766
H,8.455058313868614,-0.10187999999999997,-1.79842
H,7.4252853138686135,-2.377567,-1.976181
H,9.179970313868614,-2.496409,-1.886419
H,8.199405313868613,-2.849255,-0.456063
H,9.554960313868612,0.5852640000000001,0.342292
H,9.555421313868614,-1.087426,0.876799
H,11.051851313868614,-1.7062089999999999,-1.027285
H,10.983077313868613,-0.05976199999999997,-1.636663
H,11.987173313868613,0.7559650000000001,0.531713
H,12.138270313868613,-0.9066129999999999,1.07626
H,13.487362313868614,0.2556280000000001,-1.407312
H,13.913408313868613,-2.44699,-0.018645
H,13.124932313868612,-2.215202,-1.586265
H,14.838580313868613,-1.851432,-1.404867
H,14.248641313868612,1.236261,0.760837
H,14.660598313868613,-0.36755399999999994,1.345053
H,16.393999313868612,-0.595262,-0.438044
H,15.898280313868613,0.9406570000000001,-1.132564
H,16.60080731386861,2.126918,0.950532
H,16.971751313868612,0.591203,1.717545
H,18.753053313868612,0.16962200000000002,0.021078
H,18.163191313868612,3.0318330000000002,-0.908153
H,19.56336831386861,2.068177,-1.400188
H,17.93740031386861,1.566696,-1.876156
H,19.29284131386861,1.193189,2.233312
H,20.37244831386861,1.814891,0.973464
H,19.030591313868612,2.808426,1.558633
Mg,29.856374313868606,0.45576300000000003,0.0863
C,32.127622313868606,-2.128096,0.505976
C,32.209763313868606,2.662419,1.178948
C,27.60710231386861,2.964068,-0.395247
C,27.450437313868605,-1.8727449999999999,-0.891951
N,31.879769313868607,0.26869200000000004,0.72176
C,32.641930313868606,-0.8789699999999999,0.801053
C,34.06166331386861,-0.576422,1.233309
C,33.96172631386861,0.892582,1.707207
C,32.61180431386861,1.3330870000000001,1.166061
C,34.03126531386861,1.0314050000000001,3.236854
C,35.06675431386861,-0.7805099999999999,0.081897
C,36.51654931386861,-0.627922,0.536177
C,37.500225313868604,-0.8541829999999999,-0.592099
O,37.20728931386861,-1.2026249999999998,-1.716069
O,38.76347331386861,-0.621018,-0.186124
N,29.905891313868608,2.467499,0.330759
C,30.970895313868606,3.2119240000000002,0.781239
C,30.62854131386861,4.610962,0.797413
C,29.317310313868607,4.701546,0.348736
C,28.884732313868607,3.34021,0.060014
C,31.549796313868608,5.724861,1.178448
C,28.48953731386861,5.876901999999999,0.143875
C,28.62355731386861,7.078100999999999,0.729407
N,27.889868313868607,0.5296540000000001,-0.544261
C,27.144320313868608,1.676355,-0.671865
C,25.79898431386861,1.345153,-1.131403
C,25.75432931386861,-0.015859999999999957,-1.269717
C,27.075493313868606,-0.5184679999999999,-0.897987
C,24.718834313868605,2.347184,-1.385473
C,24.617386313868607,-0.8691639999999999,-1.746694
C,24.74854631386861,-1.278479,-3.223488
N,29.759081313868606,-1.5420449999999999,-0.163249
C,28.71272031386861,-2.374947,-0.544201
C,29.13985531386861,-3.764888,-0.517002
C,30.467362313868605,-3.720581,-0.109183
C,30.796774313868607,-2.350844,0.091646
C,28.312852313868607,-4.959418,-0.856169
C,31.634086313868607,-4.534768000000001,0.190259
O,31.779380313868607,-5.7418320000000005,0.180514
C,32.79448331386861,-3.495928,0.556784
C,33.411225313868606,-3.860975,1.890315
O,33.20729131386861,-3.296823,2.946418
O,34.222985313868605,-4.9242170000000005,1.759625
C,34.77902731386861,-5.418343,2.985996
C,39.786253313868606,-0.837513,-1.194828
C,41.110605313868604,-0.6177229999999999,-0.544372
C,42.10454431386861,0.17431800000000006,-0.97123
C,42.04220131386861,1.032845,-2.20865
C,43.40667031386861,0.23343800000000006,-0.204756
C,44.61493131386861,-0.32492199999999993,-0.976713
C,45.902341313868604,-0.28224099999999996,-0.148976
C,47.17485131386861,-0.7237699999999999,-0.8928
C,47.096691313868604,-2.1916029999999997,-1.33034
C,48.41281931386861,-0.451491,-0.020375
C,49.76210231386861,-0.660067,-0.714949
C,50.946739313868605,-0.273259,0.175884
C,52.32954731386861,-0.35956599999999994,-0.493475
C,52.67674731386861,-1.796519,-0.901737
C,53.39953031386861,0.24442500000000003,0.432653
C,54.79358031386861,0.39230200000000004,-0.18473
C,55.7752713138686,1.108813,0.747433
C,57.22141331386861,1.195273,0.23294
C,57.3309993138686,2.006547,-1.063041
C,58.138787313868605,1.782599,1.3106
H,32.943092313868604,3.367084,1.559042
H,26.890690313868607,3.7668530000000002,-0.534738
H,26.69369831386861,-2.5950509999999998,-1.181806
H,34.332329313868605,-1.238375,2.065093
H,34.754120313868604,1.508987,1.26351
H,35.01032131386861,0.7085340000000001,3.606626
H,33.87054831386861,2.06737,3.549778
H,33.267462313868606,0.40805500000000006,3.713148
H,34.94064731386861,-1.7736939999999999,-0.359929
H,34.853147313868604,-0.06659999999999996,-0.722654
H,36.71374431386861,0.3637250000000001,0.96137
H,36.75366031386861,-1.342736,1.335417
H,31.35123431386861,6.614477999999999,0.571687
H,31.434170313868606,6.020784,2.229875
H,32.597903313868606,5.446917999999999,1.032674
H,27.672055313868608,5.755777999999999,-0.566473
H,27.950094313868608,7.8923879999999995,0.482243
H,29.378778313868608,7.2812339999999995,1.480397
H,24.994187313868608,3.0381270000000002,-2.191685
H,23.782434313868606,1.862174,-1.672718
H,24.519784313868605,2.956257,-0.495605
H,24.549106313868606,-1.771174,-1.124991
H,23.672448313868607,-0.33329699999999995,-1.602456
H,23.91144931386861,-1.913781,-3.530419
H,24.76351431386861,-0.39568899999999996,-3.870216
H,25.677851313868608,-1.83013,-3.397218
H,27.945643313868608,-4.915394,-1.88937
H,28.903309313868608,-5.870869000000001,-0.740449
H,27.431247313868607,-5.035918000000001,-0.207313
H,33.5646423138686,-3.634346,-0.212619
H,35.383333313868604,-4.648268000000001,3.472824
H,33.98383031386861,-5.725153000000001,3.669623
H,35.39466231386861,-6.272554,2.706389
H,39.67890931386861,-1.864174,-1.565513
H,39.595044313868605,-0.17124999999999996,-2.039425
H,41.26459031386861,-1.196264,0.365998
H,41.03634231386861,1.114171,-2.625143
H,42.40013531386861,2.045359,-1.985616
H,42.69377231386861,0.6376890000000001,-2.997431
H,43.617618313868604,1.279792,0.063861
H,43.300736313868605,-0.31703499999999996,0.738045
H,44.38822931386861,-1.353672,-1.282428
H,44.76387231386861,0.24856800000000004,-1.901771
H,46.04901431386861,0.744623,0.215719
H,45.778249313868606,-0.906875,0.748766
H,47.26313931386861,-0.10187999999999997,-1.79842
H,46.23336631386861,-2.377567,-1.976181
H,47.98805131386861,-2.496409,-1.886419
H,47.00748631386861,-2.849255,-0.456063
H,48.36304131386861,0.5852640000000001,0.342292
H,48.36350231386861,-1.087426,0.876799
H,49.85993231386861,-1.7062089999999999,-1.027285
H,49.79115831386861,-0.05976199999999997,-1.636663
H,50.79525431386861,0.7559650000000001,0.531713
H,50.946351313868604,-0.9066129999999999,1.07626
H,52.29544331386861,0.2556280000000001,-1.407312
H,52.72148931386861,-2.44699,-0.018645
H,51.93301331386861,-2.215202,-1.586265
H,53.646661313868606,-1.851432,-1.404867
H,53.056722313868605,1.236261,0.760837
H,53.468679313868606,-0.36755399999999994,1.345053
H,55.202080313868606,-0.595262,-0.438044
H,54.706361313868605,0.9406570000000001,-1.132564
H,55.4088883138686,2.126918,0.950532
H,55.77983231386861,0.591203,1.717545
H,57.56113431386861,0.16962200000000002,0.021078
H,56.97127231386861,3.0318330000000002,-0.908153
H,58.37144931386861,2.068177,-1.400188
H,56.74548131386861,1.566696,-1.876156
H,58.10092231386861,1.193189,2.233312
H,59.180529313868604,1.814891,0.973464
H,57.83867231386861,2.808426,1.558633

