%NProcShared=4
%Chk=chlorophyll-b-s1-freq.chk
%Mem=4GB
#n B3LYP/SVP Freq=savenormalmodes

 chlorophyll-b-s1-freq.com

0 1
Mg        -2.74418        0.07193       -0.82813
C         -1.22745        3.10799       -0.49351
C         -0.03303       -1.16361       -2.53419
C         -4.33874       -2.98545       -0.82889
C         -5.31128        1.41140        1.06204
N         -0.89307        0.86027       -1.43348
C         -0.45283        2.05829       -1.22110
C          0.96884        2.26023       -1.71064
C          1.25510        0.96942       -2.50330
C          0.06871        0.12145       -2.15397
C          1.28990        1.21998       -4.02046
C          1.92181        2.45257       -0.49510
C          1.85401        1.32048        0.56020
C          2.20440        1.81278        1.93789
O          1.51172        2.68708        2.44154
O          3.20492        1.23325        2.64695
N         -2.28300       -1.79170       -1.59493
C         -1.15055       -2.09838       -2.25950
C         -1.17718       -3.43194       -2.64391
C         -2.37418       -3.97127       -2.18957
C         -3.03455       -2.91529       -1.52854
C         -0.12395       -4.19143       -3.41263
C         -2.71822       -5.41473       -2.44135
C         -3.84445       -6.08811       -2.17200
N         -4.51982       -0.66397       -0.03257
C         -4.97262       -1.99517       -0.17502
C         -6.26696       -2.11758        0.53265
C         -6.51645       -0.91150        1.05645
C         -5.39734       -0.02011        0.66578
C         -7.16210       -3.30204        0.65635
O         -6.87556       -4.38099        0.16747
C         -7.72485       -0.54051        1.89560
C         -7.67650       -1.20982        3.27047
N         -3.21088        1.84344        0.05628
C         -4.29361        2.22478        0.77229
C         -4.16611        3.57524        1.16361
C         -2.95108        3.95753        0.65751
C         -2.42359        2.91449        0.02776
C         -5.08418        4.44888        1.96353
C         -2.03547        5.06137        0.57262
O         -2.19109        6.17141        1.05592
C         -0.82490        4.56145       -0.17897
C         -0.55456        5.36400       -1.41942
O         -1.40686        5.45607       -2.29319
O          0.64710        5.98160       -1.54914
C          1.00989        6.74755       -2.63524
C          3.36991        1.34560        4.02148
C          3.33655       -0.03696        4.61068
C          4.22488       -1.00742        4.29397
C          5.41340       -0.76262        3.38785
C          4.06292       -2.40754        4.84793
C          2.67565       -3.03533        4.59197
C          2.10516       -2.90986        3.16127
C          2.94620       -3.47590        1.99312
C          3.24915       -4.97159        2.19974
C          2.15082       -3.24831        0.67652
C          2.94054       -3.46509       -0.62948
C          3.86003       -2.27114       -0.97063
C          4.58357       -2.46118       -2.32710
C          5.77854       -3.41851       -2.18413
C          4.99286       -1.14086       -3.04628
C          6.12761       -0.27741       -2.46251
C          5.76572        0.48875       -1.17998
C          6.91444        1.39565       -0.67932
C          6.42750        2.23494        0.50784
C          8.14674        0.57744       -0.25455
H          0.81113       -1.54807       -3.08972
H         -4.82493       -3.92130       -0.81449
H         -6.11966        1.81682        1.64749
H          1.04681        3.15094       -2.37270
H          2.21256        0.50874       -2.18542
H          2.12747        1.90389       -4.27268
H          0.33832        1.68131       -4.36649
H          1.44345        0.26928       -4.57340
H          1.63219        3.39813       -0.02328
H          2.97418        2.60289       -0.81729
H          2.48663        0.46511        0.24327
H          0.81826        0.94369        0.67092
H          0.75254       -3.58109       -3.69011
H         -0.56617       -4.58357       -4.35261
H          0.24191       -5.04064       -2.79869
H         -1.95462       -6.01414       -2.92537
H         -4.72923       -5.69331       -1.72121
H         -3.89795       -7.13918       -2.43974
H         -8.10924       -3.21656        1.17475
H         -8.65476       -0.81156        1.35251
H         -7.76751        0.54755        2.07952
H         -6.76367       -0.88535        3.81521
H         -7.66690       -2.31465        3.19948
H         -8.56555       -0.90712        3.86259
H         -4.55598        4.79540        2.87645
H         -6.00593        3.92073        2.27265
H         -5.37192        5.33201        1.35623
H          0.03795        4.61726        0.50869
H          2.03854        7.13319       -2.47919
H          0.31788        7.60993       -2.74289
H          0.99439        6.13213       -3.55975
H          2.55189        1.94071        4.48468
H          4.32945        1.85010        4.25694
H          2.51896       -0.26171        5.29000
H          5.37402       -1.40617        2.49130
H          6.34267       -0.99624        3.94845
H          5.50234        0.28107        3.04913
H          4.23075       -2.39533        5.94745
H          4.84289       -3.06175        4.40232
H          1.93991       -2.53531        5.25831
H          2.70994       -4.09941        4.90884
H          1.93343       -1.82973        2.96070
H          1.10932       -3.40510        3.16358
H          3.89699       -2.91913        1.94949
H          3.86041       -5.37980        1.37120
H          2.30334       -5.55259        2.26366
H          3.82583       -5.13321        3.13300
H          1.73898       -2.21464        0.63809
H          1.27878       -3.93861        0.69086
H          2.19322       -3.52241       -1.45081
H          3.48127       -4.42992       -0.60948
H          4.58814       -2.10058       -0.15490
H          3.19386       -1.38790       -1.05572
H          3.84671       -2.91627       -3.02657
H          6.26121       -3.58482       -3.17020
H          5.45941       -4.40272       -1.78774
H          6.53323       -2.99765       -1.48533
H          4.09447       -0.50760       -3.20662
H          5.34101       -1.44500       -4.05898
H          6.37343        0.49177       -3.22916
H          7.02345       -0.91149       -2.33202
H          5.49889       -0.19875       -0.36279
H          4.88029        1.12251       -1.40721
H          7.21169        2.09880       -1.48861
H          7.23900        2.90158        0.87003
H          6.11112        1.58014        1.34128
H          5.56555        2.86800        0.20856
H          8.58505        0.02847       -1.11129
H          7.87649       -0.15210        0.53965
H          8.93993        1.25003        0.13425

