%NProcShared=4
%Chk=chlorophyll-b-s1-geom-freq-wTunado.chk
%Mem=6GB
#n iop(3/107=0140000000,3/108=0140000000) CAM-B3LYP/6-31G(d,p) Td Opt Freq=savenormalmodes

 chlorophyll-b-s1-geom-freq-wTunado

0 1
Mg        -1.94728        0.58942       -1.11056
C          1.25032        1.60352       -1.94767
C         -1.48485       -2.26303       -2.89029
C         -5.07556       -0.41491       -0.20272
C         -2.35822        3.54629        0.69862
N         -0.32154       -0.20178       -2.26064
C          0.90996        0.38066       -2.48191
C          1.77052       -0.47758       -3.39437
C          0.88954       -1.72557       -3.64005
C         -0.39901       -1.39756       -2.89713
C          0.68404       -2.03660       -5.12611
C          3.17427       -0.78610       -2.84644
C          3.18532       -1.40807       -1.44073
C          4.40684       -0.99631       -0.64787
O          4.90280        0.11447       -0.68138
O          4.86084       -1.99003        0.13241
N         -3.10066       -1.02195       -1.52168
C         -2.73314       -2.10019       -2.25956
C         -3.81240       -3.07220       -2.29684
C         -4.85193       -2.54209       -1.56952
C         -4.38562       -1.25015       -1.05746
C         -3.76106       -4.37138       -3.03588
C         -6.15437       -3.16989       -1.36254
C         -7.33295       -2.55544       -1.19945
N         -3.46095        1.42843        0.04633
C         -4.65739        0.84379        0.30304
C         -5.44416        1.70195        1.16080
C         -4.67551        2.83716        1.41058
C         -3.43886        2.64350        0.71066
C         -6.79003        1.45557        1.65670
O         -7.47252        0.46667        1.42296
C         -5.01472        4.01254        2.28053
C         -4.52290        3.84119        3.72805
N         -0.84803        2.22020       -0.67883
C         -1.14000        3.37245        0.05384
C         -0.01236        4.28586        0.01690
C          0.94090        3.63764       -0.75043
C          0.38844        2.38949       -1.14636
C          0.08539        5.62880        0.66399
C          2.28109        3.76375       -1.31674
O          3.06809        4.68553       -1.25915
C          2.55280        2.39184       -2.07464
C          2.98943        2.66190       -3.49942
O          2.29361        2.54276       -4.48813
O          4.27012        3.06359       -3.53470
C          4.75835        3.42698       -4.83366
C          5.98363       -1.64551        1.00751
C          5.56253       -0.76500        2.14200
C          5.13590       -1.17731        3.34500
C          5.03928       -2.62257        3.75973
C          4.72247       -0.20954        4.43575
C          4.45938        1.25240        4.05048
C          3.27044        1.49765        3.10547
C          1.91759        0.91150        3.54785
C          1.51917        1.38719        4.95042
C          0.83442        1.27065        2.51157
C         -0.46602        0.45873        2.60068
C         -0.34249       -0.96861        2.05152
C         -1.65211       -1.77812        2.09126
C         -2.08264       -2.10109        3.52865
C         -1.61624       -3.04645        1.21153
C         -0.58021       -4.13403        1.56265
C          0.77079       -3.99941        0.84623
C          1.70562       -5.20786        1.02476
C          2.92717       -5.09165        0.10697
C          2.14696       -5.39002        2.48148
H         -1.35323       -3.18824       -3.44278
H         -6.04890       -0.73648        0.14480
H         -2.49219        4.47049        1.25415
H          1.89874        0.07552       -4.33431
H          1.34309       -2.60623       -3.16293
H          1.64792       -2.22139       -5.61231
H          0.20386       -1.19413       -5.63440
H          0.05992       -2.92297       -5.27458
H          3.76981        0.12992       -2.82099
H          3.68123       -1.45791       -3.55030
H          3.10619       -2.49757       -1.45476
H          2.32849       -1.03580       -0.86055
H         -2.91898       -4.98917       -2.70226
H         -3.63746       -4.21319       -4.11413
H         -4.67715       -4.94931       -2.89486
H         -6.14709       -4.25936       -1.37602
H         -7.44196       -1.47659       -1.21427
H         -8.24012       -3.13351       -1.05594
H         -7.20050        2.26335        2.30055
H         -6.09789        4.17330        2.28287
H         -4.57803        4.92280        1.85313
H         -3.43786        3.70079        3.75818
H         -4.98353        2.96438        4.19339
H         -4.77283        4.72010        4.33059
H          1.05118        6.08403        0.43500
H         -0.01154        5.55687        1.75379
H         -0.70513        6.30180        0.31238
H          3.39297        1.91776       -1.54851
H          5.79480        3.72710       -4.68405
H          4.17365        4.25378       -5.24417
H          4.69633        2.57764       -5.51895
H          6.73984       -1.14887        0.39488
H          6.35872       -2.61636        1.33066
H          5.58143        0.29643        1.91915
H          3.99693       -2.88065        3.98622
H          5.60786       -2.79738        4.68201
H          5.39476       -3.32284        3.00191
H          5.50246       -0.23553        5.21242
H          3.83064       -0.62123        4.92906
H          5.36254        1.68299        3.60023
H          4.30271        1.81295        4.97995
H          3.50320        1.10572        2.10839
H          3.15452        2.58424        2.98185
H          2.01485       -0.18453        3.57071
H          0.53240        1.01243        5.24017
H          1.48187        2.48356        4.98598
H          2.22846        1.05515        5.71537
H          1.25006        1.15318        1.50024
H          0.60235        2.34044        2.61390
H         -1.24897        0.98341        2.03707
H         -0.81633        0.43027        3.64001
H          0.43889       -1.51419        2.59922
H          0.01124       -0.90748        1.00927
H         -2.43977       -1.14138        1.65727
H         -3.01473       -2.67638        3.53680
H         -2.25292       -1.19281        4.11450
H         -1.32166       -2.69091        4.05337
H         -1.47162       -2.74695        0.16462
H         -2.61928       -3.49023        1.25493
H         -1.00044       -5.11217        1.29071
H         -0.42973       -4.17262        2.64877
H          1.29705       -3.09304        1.17693
H          0.57745       -3.86195       -0.22837
H          1.14292       -6.10690        0.72830
H          3.58021       -5.96666        0.20094
H          3.52239       -4.20277        0.35023
H          2.62583       -5.01519       -0.94495
H          1.29734       -5.54519        3.15332
H          2.69438       -4.50493        2.83037
H          2.81341       -6.25330        2.58573

