--Link1--
%Mem=30GB
%CPU=0-29
%Chk=cla-s0.chk
#n wB97XD/Def2TZVP Opt

cla-s0

  0  1
Mg,-8.973447328467152,0.4361920729927007,0.109514
C,-6.671329328467153,-2.1102879270072994,0.503651
C,-6.647077328467153,2.6653260729927006,1.195428
C,-11.244252328467152,2.9246050729927004,-0.33667
C,-11.349864328467152,-1.9096509270072994,-0.86885
N,-6.932324328467153,0.2759940729927006,0.734796
C,-6.164087328467153,-0.8651969270072993,0.800972
C,-4.740528328467153,-0.5486799270072993,1.225588
C,-4.8472483284671535,0.9272740729927007,1.681936
C,-6.219273328467153,1.3447950729927007,1.167388
C,-4.742230328467153,1.0937260729927007,3.204739
C,-3.737331328467153,-0.7612999270072993,0.076742
C,-2.2876003284671533,-0.5890869270072994,0.524171
C,-1.3039243284671531,-0.8170799270072994,-0.603482
O,-1.595637328467153,-1.1673629270072994,-1.727197
O,-0.04039032846715318,-0.5823329270072993,-0.197799
N,-8.944055328467153,2.4445260729927005,0.368432
C,-7.898830328467153,3.189060072992701,0.82016
C,-8.270243328467153,4.592295072992701,0.872355
C,-9.574186328467153,4.669732072992701,0.43093
C,-9.994608328467152,3.3056860729927005,0.126608
C,-7.392328328467153,5.697686072992701,1.364748
C,-10.438016328467153,5.837919072992701,0.309781
C,-10.048162328467152,7.097756072992701,0.072623
N,-10.949783328467152,0.4938160729927007,-0.502947
C,-11.703550328467152,1.6217730729927007,-0.628758
C,-13.032711328467153,1.2886950729927007,-1.092504
C,-13.064933328467152,-0.08017392700729933,-1.237338
C,-11.751303328467152,-0.5665199270072994,-0.866971
C,-14.127719328467153,2.2757900729927005,-1.354691
C,-14.199683328467152,-0.9307789270072994,-1.728228
C,-14.106820328467153,-1.2525489270072994,-3.228946
N,-9.047619328467153,-1.5577849270072994,-0.148813
C,-10.087917328467153,-2.4020059270072993,-0.531941
C,-9.643465328467153,-3.779571927007299,-0.51571
C,-8.314920328467153,-3.7182459270072994,-0.115079
C,-8.002358328467153,-2.349855927007299,0.093786
C,-10.446693328467152,-4.993211927007299,-0.85453
C,-7.134763328467153,-4.521547927007299,0.175001
O,-6.976522328467153,-5.724864927007299,0.159652
C,-5.986040328467153,-3.472059927007299,0.54108
C,-5.356498328467153,-3.8405549270072994,1.868203
O,-5.573594328467153,-3.299072927007299,2.932847
O,-4.516661328467153,-4.879875927007299,1.71912
C,-3.9437553284671534,-5.376707927007299,2.93663
C,0.9820936715328468,-0.7988239270072993,-1.206251
C,2.306635671532847,-0.5829069270072993,-0.554713
C,3.3037856715328466,0.20535407299270067,-0.980998
C,3.2456936715328464,1.0632360729927006,-2.219089
C,4.605283671532846,0.2605300729927007,-0.213138
C,5.8124706715328465,-0.30258192700729936,-0.983313
C,7.099035671532847,-0.26406592700729936,-0.154058
C,8.370929671532847,-0.7104179270072993,-0.896056
C,8.287997671532848,-2.1780519270072993,-1.333385
C,9.608688671532848,-0.4424949270072993,-0.021987
C,10.958169671532847,-0.6562419270072993,-0.714602
C,12.142981671532848,-0.2737689270072993,0.17787
C,13.526419671532848,-0.36528392700729934,-0.489497
C,13.868837671532848,-1.8035429270072993,-0.897202
C,14.597319671532846,0.2347380729927007,0.438153
C,15.992816671532848,0.3773410729927007,-0.177201
C,16.975864671532847,1.0901310729927007,0.756383
C,18.423061671532846,1.1711530729927007,0.243964
C,18.537570671532844,1.9821190729927007,-1.051786
C,19.341118671532847,1.7549050729927007,1.322984
H,-5.917555328467153,3.3847820729927007,1.55479
H,-11.962623328467153,3.722760072992701,-0.496974
H,-12.097522328467152,-2.6408539270072993,-1.164525
H,-4.463233328467153,-1.1947639270072994,2.067614
H,-4.073760328467153,1.5437130729927007,1.206335
H,-3.752907328467153,0.7837090729927007,3.557866
H,-4.902278328467153,2.134033072992701,3.504325
H,-5.490328328467153,0.4749220729927006,3.711155
H,-3.854871328467153,-1.7621969270072995,-0.35014
H,-3.958118328467153,-0.06231392700729933,-0.738984
H,-2.099200328467153,0.4093640729927006,0.937481
H,-2.040603328467153,-1.2916469270072994,1.331241
H,-6.778463328467153,6.1268480729927015,0.562178
H,-7.993437328467153,6.510611072992701,1.783108
H,-6.707852328467153,5.346885072992701,2.143213
H,-11.505151328467152,5.649238072992701,0.421555
H,-10.773736328467152,7.902704072992701,0.014067
H,-9.009774328467152,7.3629070729927015,-0.095294
H,-13.886012328467153,2.9355460729927008,-2.197016
H,-15.068005328467152,1.7722180729927006,-1.594763
H,-14.310526328467153,2.917745072992701,-0.48502
H,-14.234859328467152,-1.8674189270072994,-1.157921
H,-15.150104328467153,-0.4232709270072993,-1.52643
H,-14.945478328467152,-1.8790089270072994,-3.550023
H,-14.118400328467153,-0.33414192700729933,-3.82425
H,-13.176664328467153,-1.7819609270072994,-3.458845
H,-10.821181328467153,-4.952917927007299,-1.884186
H,-9.833130328467153,-5.890318927007299,-0.747719
H,-11.318482328467152,-5.093530927007299,-0.197438
H,-5.218820328467153,-3.5955559270072994,-0.23347
H,-3.359240328467153,-4.597627927007299,3.43313
H,-4.728266328467154,-5.7149769270072985,3.617779
H,-3.3058753284671534,-6.209629927007299,2.642971
H,0.8731486715328469,-1.8245019270072993,-1.579237
H,0.792857671532847,-0.13058492700729932,-2.049802
H,2.457616671532847,-1.1613389270072993,0.356238
H,2.2404966715328465,1.1476360729927007,-2.636577
H,3.6068756715328467,2.074697072992701,-1.996454
H,3.8966316715328464,0.6652970729927007,-3.007007
H,4.819626671532847,1.3063220729927008,0.055023
H,4.496379671532846,-0.28891192700729934,0.729929
H,5.582438671532847,-1.3306839270072994,-1.288713
H,5.964549671532847,0.2698340729927007,-1.908531
H,7.248887671532846,0.7624340729927006,0.210375
H,6.971631671532847,-0.8878469270072994,0.743814
H,8.462744671532848,-0.08906392700729933,-1.801694
H,7.424895671532847,-2.3609579270072993,-1.980388
H,9.179012671532847,-2.4862749270072992,-1.88814
H,8.195123671532848,-2.8351749270072992,-0.459093
H,9.562237671532847,0.5945240729927006,0.340366
H,9.555762671532847,-1.0780199270072992,0.87527
H,11.052502671532848,-1.7027869270072993,-1.026651
H,10.990799671532848,-0.05619092700729933,-1.636362
H,11.994827671532848,0.7560440729927006,0.533395
H,12.138956671532847,-0.9070279270072994,1.078303
H,13.495938671532848,0.24999507299270066,-1.403405
H,13.909849671532848,-2.4541419270072993,-0.014024
H,13.124541671532848,-2.2194649270072992,-1.582796
H,14.83927367153285,-1.8621149270072994,-1.398912
H,14.257762671532847,1.2278720729927006,0.76579
H,14.662839671532849,-0.37744392700729934,1.350683
H,16.397940671532847,-0.6117629270072993,-0.429924
H,15.909047671532848,0.9260140729927007,-1.125161
H,16.613031671532845,2.1096030729927007,0.958991
H,16.977085671532844,0.5724860729927006,1.726484
H,18.759192671532844,0.1442410729927007,0.032496
H,18.181526671532847,3.008750072992701,-0.897305
H,19.578720671532846,2.0398200729927005,-1.38746
H,17.951527671532844,1.5445760729927007,-1.865767
H,19.299706671532846,1.1655610729927006,2.245584
H,20.383454671532846,1.7832870729927006,0.987338
H,19.044533671532847,2.7818370729927007,1.570688

