%nproc=4
%Mem=2GB
# td(NStates=1) CAM-B3LYP/6-31G(d,p) nosymm

neoxanthin-abs Single Point

0 1
O  11.52432012   0.80763617  -0.88793355
O  13.20254690  -2.37539522   1.25301656
O -10.46196883  -0.51154952   2.29879301
O -14.24951480  -1.27343208   0.63448781
C  10.89748151  -0.28722434  -0.45342922
C  11.86421091   0.42224452   0.46515564
C  11.28233680  -1.69468493  -1.03814247
C  13.34149698  -0.05090438   0.48799669
C  12.81085512  -1.84041255  -1.15700267
C  13.64694569  -1.49248542   0.12617881
C  11.28667643   1.44415631   1.43452386
C   9.40289780  -0.16458014  -0.26377451
C  10.57300159  -2.95070463  -0.40239776
C  10.79765975  -1.58369361  -2.50945319
C   8.67967195  -0.41382659   0.75776083
C   7.26784747  -0.05707306   1.02243378
C   6.58747455  -1.16411376   1.86135389
C   6.67151318   0.88845274   0.36251298
C   5.30063750   1.32001190   0.42878018
C -11.98488871  -0.29461868  -1.34113009
C -11.54058428  -0.53878375   1.39794783
C -12.56664687  -1.69909405  -1.15504724
C -13.13337873  -2.09940245   0.15630698
C -12.09193571  -1.94171007   1.23489756
C -11.06064087  -0.00930423  -0.01942014
C -11.17575655  -0.34844526  -2.53584084
C -13.04886606   0.77725257  -1.48764463
C -12.59364470   0.54863605   1.94143341
C   4.73434436   2.40156816  -0.09854778
C  -9.92897599   0.61788687  -0.18398481
C   3.34302604   2.92756562   0.01126841
C  -8.61024638   1.00862505  -0.24160993
C   3.17266723   4.44102859   0.20449262
C   2.31985315   1.93555311  -0.25025368
C  -7.46451010   0.19610752  -0.22199650
C  -7.55875370  -1.26676862  -0.14727221
C  -6.20122561   0.84925876  -0.30260878
C   0.96866797   2.15925199  -0.10066631
C  -4.90498470   0.28560069  -0.30001259
C   0.06822555   1.10630408  -0.22682006
C  -3.77021834   1.09630451  -0.25982267
C  -1.37200535   1.49172742  -0.18573124
C  -2.44251748   0.53898695  -0.21339170
C  -2.28419649  -0.94397190  -0.29214896
H  13.73236087   0.01422406   1.50503774
H  13.93284891   0.59161838  -0.34375870
H  13.16898188  -2.72704297  -1.37767105
H  13.00835628  -1.10829451  -1.95459976
H  14.69774298  -1.67819897   0.09627982
H  11.12681723   1.07121131   2.43572816
H  12.08238035   2.29773625   1.54649002
H  10.38913113   1.90608326   0.78980935
H   8.80616244   0.14166697  -0.99958160
H   9.56471829  -2.91822146  -0.33431389
H  10.76520330  -3.91664161  -0.92668250
H  11.01725390  -3.02251149   0.73203185
H  11.12299959  -0.52243326  -2.87897153
H  11.39127058  -2.39652572  -3.12133087
H   9.74084577  -1.73957131  -2.76257107
H  12.44691831  -1.90312884   1.65975544
H   9.26897998  -0.86862507   1.52802312
H   5.45074756  -0.85918329   1.80668400
H   6.50819263  -2.20451774   1.18035021
H   6.95290004  -1.25976838   2.85833130
H   7.33926814   1.45997171  -0.45562176
H   4.46256208   0.83068175   0.96661273
H -13.24492701  -1.89794861  -2.13852703
H -11.72877462  -2.33504874  -1.38866483
H -13.43418380  -2.99006697   0.30327803
H -12.49595896  -1.97052550   2.29173782
H -11.25277194  -2.72289403   1.33043150
H -11.90111006  -0.52235572  -3.25778957
H -10.70664164   0.67110847  -2.84398765
H -10.43417263  -1.17586103  -2.73794244
H -13.67369591   0.72221741  -0.72059540
H -12.63983012   1.82288704  -1.55569434
H -13.50246200   0.55978046  -2.57489191
H -12.74417207   0.34611238   2.99477357
H -12.19480484   1.50614423   2.19258810
H -13.52611511   0.59092462   1.38801520
H   5.33592086   3.14426712  -0.62940320
H  -9.93973379   0.37044837   2.29869574
H -14.94606150  -1.50046640   0.06322661
H  -8.36285255   2.07062684  -0.10753917
H   2.28777796   4.80058974  -0.03582532
H   3.69951750   4.75071786   1.09015701
H   3.92864794   4.67052870  -0.57963283
H   2.82304480   0.98482213  -0.34817198
H  -6.68647344  -1.89633264  -0.29862856
H  -8.21546357  -1.49162406   0.79607784
H  -8.24185041  -1.56149823  -0.83843486
H  -6.17694559   1.99309334  -0.34258078
H   0.55413999   3.02723948  -0.15323003
H  -4.61212835  -0.94252138  -0.23697577
H   0.07902946   0.12446417  -0.11274627
H  -3.99604641   2.16169174   0.07134115
H  -1.82689894   2.63691254   0.01372947
H  -1.29073974  -1.15852021  -0.10982622
H  -2.81304945  -1.63350129   0.45153662
H  -2.42935556  -1.43023342  -1.37292841




