%nproc=4
%Mem=2GB
# td(NStates=1) CAM-B3LYP/6-31G(d,p) nosymm

neoxanthin-abs Single Point

0 1
O  11.62073600   0.84106200  -0.86135500
O  13.08796800  -2.47426200   1.24666200
O -10.43629300  -0.72728400   2.23357600
O -14.38580400  -1.20333100   0.44450400
C  10.89420600  -0.30097600  -0.38721600
C  11.86342500   0.42297700   0.48782500
C  11.28258900  -1.59712500  -1.12930700
C  13.27201500  -0.10791800   0.71124400
C  12.81390600  -1.79056100  -1.10224500
C  13.48801700  -1.54385800   0.24407900
C  11.39981000   1.40721400   1.53457800
C   9.42622800  -0.04084300  -0.25439800
C  10.55989000  -2.82456900  -0.55161200
C  10.85037300  -1.43965900  -2.59649400
C   8.67853900  -0.37580800   0.79943200
C   7.23467400  -0.13468300   0.95221300
C   6.50471900  -1.17200300   1.76318100
C   6.65245300   0.95002900   0.40128500
C   5.24765600   1.29602000   0.41947400
C -11.90721200  -0.31121000  -1.28256800
C -11.54354100  -0.49018800   1.36730000
C -12.59760700  -1.68708800  -1.17971200
C -13.24609100  -2.01210400   0.16442100
C -12.25365400  -1.84646900   1.30335200
C -11.04021300  -0.08067300  -0.03517200
C -11.03507700  -0.31011500  -2.54396700
C -12.94414500   0.81944700  -1.43100800
C -12.41693900   0.59854800   1.99748500
C   4.76307100   2.41811700  -0.14369800
C  -9.85965000   0.47195500  -0.10504300
C   3.35985300   2.82896500  -0.20104100
C  -8.64747600   0.98252100  -0.08659200
C   3.13866800   4.31657800  -0.28709200
C   2.36067300   1.91724600  -0.19216100
C  -7.40778700   0.19720200  -0.13733000
C  -7.56081400  -1.29700700  -0.13686600
C  -6.22891300   0.85511300  -0.15328200
C   0.94124100   2.17118700  -0.19222700
C  -4.90218800   0.28333300  -0.18189000
C   0.01217800   1.19183000  -0.20759300
C  -3.78304500   1.03403000  -0.18520300
C  -1.40589500   1.44569900  -0.19751800
C  -2.41537900   0.54167800  -0.20486700
C  -2.20321600  -0.94697900  -0.22863600
H  13.53342900  -0.05131300   1.77259300
H  13.95026900   0.56769700   0.17886500
H  13.04348500  -2.80687400  -1.43703600
H  13.26763800  -1.10317400  -1.82406400
H  14.56230200  -1.71755400   0.12718200
H  11.26453600   0.91585000   2.50323800
H  12.15819100   2.18637400   1.65990700
H  10.46102200   1.87803100   1.24893800
H   8.96548400   0.43926700  -1.11493900
H   9.47725100  -2.72283800  -0.64460400
H  10.86448100  -3.71732300  -1.10473600
H  10.79479400  -3.01017000   0.49706200
H  11.27302100  -0.52866700  -3.02700700
H  11.19978100  -2.29297700  -3.18556200
H   9.76168800  -1.39587000  -2.69176900
H  12.24440200  -2.17958100   1.60727900
H   9.15595900  -0.90402100   1.62576500
H   5.46587600  -0.90956900   1.95933600
H   6.51951000  -2.14408700   1.25799000
H   6.99953800  -1.31355500   2.73032200
H   7.29871300   1.65875500  -0.11268800
H   4.55674600   0.62134200   0.91596800
H -13.34341000  -1.77260000  -1.98145700
H -11.85231500  -2.46776100  -1.37417900
H -13.55492200  -3.06820500   0.14371800
H -12.75334100  -2.03379100   2.25779700
H -11.47384600  -2.60550600   1.18986200
H -11.65150200  -0.50739700  -3.42645500
H -10.54398100   0.65572300  -2.68396600
H -10.25779100  -1.07706200  -2.49110300
H -13.65617600   0.83662800  -0.60848500
H -12.44168600   1.78892300  -1.48398600
H -13.50804600   0.68204300  -2.36031300
H -12.63945600   0.31220400   3.02853300
H -11.87863700   1.55137400   2.00913900
H -13.35955800   0.72794900   1.46878500
H   5.47761500   3.11529700  -0.58177500
H  -9.88208900   0.06460900   2.22184200
H -15.01396800  -1.31193100  -0.27918200
H  -8.53567800   2.06492000  -0.02392300
H   2.09930400   4.58612000  -0.47060200
H   3.46009500   4.81279600   0.63508500
H   3.73985300   4.74068300  -1.09847200
H   2.64188200   0.86619100  -0.19925100
H  -6.61223900  -1.81830400  -0.01374700
H  -8.23575700  -1.60013200   0.66925400
H  -8.01617800  -1.63721000  -1.07325000
H  -6.26567800   1.94376900  -0.14104600
H   0.59801000   3.20239500  -0.16979200
H  -4.81483700  -0.79813900  -0.20081100
H   0.35636800   0.16088500  -0.22468200
H  -3.89363700   2.11753600  -0.16875500
H  -1.68619500   2.49810000  -0.17984200
H  -1.14976700  -1.22191500  -0.24270400
H  -2.65962500  -1.41624900   0.64890700
H  -2.67583900  -1.39026800  -1.11106200




