--Link1--
%Mem=30GB
%CPU=0-29
%Chk=b-carotene-s0.chk
#n wB97XD/Def2TZVP Opt

b-carotene-s0

  0  1
C,12.154830489583333,0.5272179895833333,-0.698811
C,-12.108602510416667,-0.056361010416666676,0.868211
C,13.444129489583334,-0.3201770104166667,-0.59001
C,-12.986744510416667,1.1393079895833333,1.302856
C,13.165114489583333,-1.8200530104166668,-0.552412
C,-13.385782510416666,2.0381019895833337,0.136329
C,11.050317489583334,-0.009422010416666678,0.244622
C,-10.985065510416666,0.40439998958333334,-0.093652
C,12.323882489583333,-2.1438370104166666,0.680237
C,-12.132917510416666,2.6101409895833334,-0.526641
C,11.161176489583333,-1.1962320104166666,0.894316
C,-11.023801510416666,1.5970049895833334,-0.741263
C,11.632379489583334,0.5119719895833333,-2.155214
C,12.534122489583334,1.9826719895833333,-0.33481
C,-12.985835510416667,-1.1255900104166667,0.171701
C,-11.503063510416666,-0.6750410104166666,2.148518
C,9.867630489583334,0.8620869895833333,0.379995
C,-9.903674510416666,-0.5813560104166667,-0.279122
C,10.186493489583333,-1.6986600104166667,1.933651
C,-9.992041510416668,2.0558319895833335,-1.745351
C,8.575859489583333,0.4636609895833333,0.297938
C,-8.572159510416666,-0.3381240104166667,-0.246771
C,7.402574489583333,1.3152199895833334,0.413874
C,-7.512804510416667,-1.3220260104166668,-0.406031
C,7.607759489583334,2.7868509895833333,0.67563
C,-7.899861510416667,-2.7566660104166663,-0.667224
C,6.169241489583333,0.7393329895833333,0.27841
C,-6.215644510416666,-0.8985510104166666,-0.308883
C,4.881749489583333,1.3699039895833334,0.35341
C,-5.015625510416667,-1.6769990104166668,-0.426184
C,3.7111404895833333,0.6875709895833333,0.200507
C,-3.767891510416667,-1.1404500104166666,-0.305623
C,2.3852424895833333,1.2561459895833333,0.265121
C,-2.5117495104166667,-1.8461900104166666,-0.407199
C,2.2545404895833334,2.7395579895833335,0.526267
C,-2.546289510416667,-3.3315120104166667,-0.676499
C,1.2427714895833333,0.5098069895833334,0.10083
C,-1.3500125104166667,-1.1310570104166666,-0.252949
C,1.1445344895833331,-0.8973050104166667,-0.154803
C,-0.007139510416666689,-1.6243790104166667,-0.31244
H,13.977198489583333,-0.04107201041666668,0.329571
H,14.108118489583333,-0.06302001041666667,-1.424616
H,-12.428093510416666,1.7393209895833333,2.034352
H,-13.873167510416668,0.7582999895833333,1.825619
H,14.102036489583334,-2.3886000104166665,-0.535542
H,12.629439489583334,-2.1277770104166667,-1.458767
H,-14.037861510416667,2.8496229895833336,0.479624
H,-13.963905510416668,1.4664809895833333,-0.599779
H,12.958618489583333,-2.1317110104166663,1.58118
H,11.933711489583333,-3.1698560104166664,0.621444
H,-11.733822510416667,3.4360159895833333,0.08483
H,-12.389604510416667,3.0681449895833337,-1.490988
H,11.424551489583333,-0.5060040104166666,-2.498673
H,12.369449489583333,0.9566099895833333,-2.83426
H,10.702543489583332,1.0821059895833334,-2.242805
H,12.788715489583334,2.0742039895833337,0.726595
H,11.734187489583332,2.6941139895833337,-0.55843
H,13.409693489583333,2.2905239895833334,-0.917289
H,-13.479436510416667,-0.7266870104166667,-0.718993
H,-13.760017510416667,-1.4887350104166668,0.857793
H,-12.395711510416668,-1.9927280104166667,-0.141175
H,-10.826834510416667,0.02961698958333332,2.643409
H,-10.936489510416667,-1.5867700104166667,1.939838
H,-12.301103510416667,-0.9320980104166667,2.854719
H,10.064190489583334,1.9246219895833334,0.500921
H,-10.227296510416666,-1.6156770104166667,-0.38622
H,9.517481489583334,-0.9208300104166667,2.302424
H,10.740115489583333,-2.1147980104166666,2.7857
H,9.567584489583334,-2.5182770104166665,1.543784
H,-9.341390510416666,1.2500969895833334,-2.085031
H,-9.353694510416666,2.8480029895833336,-1.329538
H,-10.489093510416668,2.4931689895833333,-2.620267
H,8.372348489583333,-0.5889750104166667,0.109504
H,-8.237791510416667,0.6812819895833333,-0.063475
H,8.165935489583333,2.9428639895833335,1.606175
H,6.669449489583333,3.3361809895833336,0.754203
H,8.195879489583334,3.2466029895833337,-0.127771
H,-8.512221510416667,-2.8361860104166663,-1.573064
H,-8.501860510416666,-3.1549040104166663,0.158607
H,-7.036217510416667,-3.4102640104166664,-0.791148
H,6.149611489583333,-0.3345090104166667,0.090167
H,-6.061897510416666,0.16383798958333332,-0.117232
H,4.844683489583333,2.4387819895833336,0.540932
H,-5.110740510416667,-2.7416130104166663,-0.618589
H,3.7855894895833333,-0.38107801041666667,0.013616
H,-3.695431510416667,-0.07007601041666668,-0.111333
H,2.711262489583333,3.0192619895833337,1.483447
H,1.2062484895833332,3.0459049895833337,0.552725
H,2.757668489583333,3.3284879895833335,-0.250304
H,-3.063047510416667,-3.5432180104166666,-1.619892
H,-3.0956855104166667,-3.8568480104166665,0.113486
H,-1.5520305104166667,-3.7734330104166665,-0.737736
H,0.3042484895833333,1.0540709895833333,0.173548
H,-1.4708575104166668,-0.06664901041666668,-0.062739
H,2.072811489583333,-1.4562800104166667,-0.234358
H,0.1231484895833333,-2.6863540104166663,-0.501391
C,43.60081048958333,0.5272179895833333,-0.698811
C,19.337377489583332,-0.056361010416666676,0.868211
C,44.89010948958333,-0.3201770104166667,-0.59001
C,18.45923548958333,1.1393079895833333,1.302856
C,44.61109448958333,-1.8200530104166668,-0.552412
C,18.06019748958333,2.0381019895833337,0.136329
C,42.496297489583334,-0.009422010416666678,0.244622
C,20.46091448958333,0.40439998958333334,-0.093652
C,43.76986248958333,-2.1438370104166666,0.680237
C,19.31306248958333,2.6101409895833334,-0.526641
C,42.60715648958333,-1.1962320104166666,0.894316
C,20.42217848958333,1.5970049895833334,-0.741263
C,43.078359489583335,0.5119719895833333,-2.155214
C,43.98010248958333,1.9826719895833333,-0.33481
C,18.46014448958333,-1.1255900104166667,0.171701
C,19.942916489583332,-0.6750410104166666,2.148518
C,41.31361048958333,0.8620869895833333,0.379995
C,21.542305489583335,-0.5813560104166667,-0.279122
C,41.63247348958333,-1.6986600104166667,1.933651
C,21.45393848958333,2.0558319895833335,-1.745351
C,40.02183948958333,0.4636609895833333,0.297938
C,22.87382048958333,-0.3381240104166667,-0.246771
C,38.848554489583336,1.3152199895833334,0.413874
C,23.93317548958333,-1.3220260104166668,-0.406031
C,39.053739489583336,2.7868509895833333,0.67563
C,23.546118489583332,-2.7566660104166663,-0.667224
C,37.615221489583334,0.7393329895833333,0.27841
C,25.230335489583332,-0.8985510104166666,-0.308883
C,36.327729489583334,1.3699039895833334,0.35341
C,26.43035448958333,-1.6769990104166668,-0.426184
C,35.157120489583335,0.6875709895833333,0.200507
C,27.67808848958333,-1.1404500104166666,-0.305623
C,33.83122248958333,1.2561459895833333,0.265121
C,28.93423048958333,-1.8461900104166666,-0.407199
C,33.70052048958333,2.7395579895833335,0.526267
C,28.89969048958333,-3.3315120104166667,-0.676499
C,32.68875148958333,0.5098069895833334,0.10083
C,30.09596748958333,-1.1310570104166666,-0.252949
C,32.590514489583335,-0.8973050104166667,-0.154803
C,31.43884048958333,-1.6243790104166667,-0.31244
H,45.423178489583336,-0.04107201041666668,0.329571
H,45.55409848958333,-0.06302001041666667,-1.424616
H,19.017886489583333,1.7393209895833333,2.034352
H,17.57281248958333,0.7582999895833333,1.825619
H,45.54801648958333,-2.3886000104166665,-0.535542
H,44.07541948958333,-2.1277770104166667,-1.458767
H,17.40811848958333,2.8496229895833336,0.479624
H,17.482074489583333,1.4664809895833333,-0.599779
H,44.404598489583336,-2.1317110104166663,1.58118
H,43.37969148958333,-3.1698560104166664,0.621444
H,19.712157489583333,3.4360159895833333,0.08483
H,19.05637548958333,3.0681449895833337,-1.490988
H,42.87053148958333,-0.5060040104166666,-2.498673
H,43.81542948958333,0.9566099895833333,-2.83426
H,42.14852348958333,1.0821059895833334,-2.242805
H,44.23469548958333,2.0742039895833337,0.726595
H,43.18016748958333,2.6941139895833337,-0.55843
H,44.85567348958333,2.2905239895833334,-0.917289
H,17.96654348958333,-0.7266870104166667,-0.718993
H,17.685962489583332,-1.4887350104166668,0.857793
H,19.05026848958333,-1.9927280104166667,-0.141175
H,20.61914548958333,0.02961698958333332,2.643409
H,20.50949048958333,-1.5867700104166667,1.939838
H,19.144876489583332,-0.9320980104166667,2.854719
H,41.51017048958333,1.9246219895833334,0.500921
H,21.218683489583334,-1.6156770104166667,-0.38622
H,40.96346148958333,-0.9208300104166667,2.302424
H,42.18609548958333,-2.1147980104166666,2.7857
H,41.01356448958333,-2.5182770104166665,1.543784
H,22.104589489583333,1.2500969895833334,-2.085031
H,22.092285489583332,2.8480029895833336,-1.329538
H,20.956886489583333,2.4931689895833333,-2.620267
H,39.81832848958333,-0.5889750104166667,0.109504
H,23.208188489583332,0.6812819895833333,-0.063475
H,39.61191548958333,2.9428639895833335,1.606175
H,38.115429489583335,3.3361809895833336,0.754203
H,39.64185948958333,3.2466029895833337,-0.127771
H,22.933758489583333,-2.8361860104166663,-1.573064
H,22.944119489583333,-3.1549040104166663,0.158607
H,24.409762489583333,-3.4102640104166664,-0.791148
H,37.595591489583335,-0.3345090104166667,0.090167
H,25.38408248958333,0.16383798958333332,-0.117232
H,36.29066348958333,2.4387819895833336,0.540932
H,26.33523948958333,-2.7416130104166663,-0.618589
H,35.23156948958333,-0.38107801041666667,0.013616
H,27.75054848958333,-0.07007601041666668,-0.111333
H,34.15724248958333,3.0192619895833337,1.483447
H,32.65222848958333,3.0459049895833337,0.552725
H,34.20364848958333,3.3284879895833335,-0.250304
H,28.382932489583332,-3.5432180104166666,-1.619892
H,28.350294489583334,-3.8568480104166665,0.113486
H,29.89394948958333,-3.7734330104166665,-0.737736
H,31.750228489583332,1.0540709895833333,0.173548
H,29.97512248958333,-0.06664901041666668,-0.062739
H,33.51879148958333,-1.4562800104166667,-0.234358
H,31.56912848958333,-2.6863540104166663,-0.501391

