--Link1--
%Mem=30GB
%CPU=0-29
%Chk=b-carotene-s1.chk
#n wB97XD/Def2TZVP Opt Td

b-carotene-s1

  0  1
C,12.255410729166666,0.5822769791666667,-0.520851
C,-12.196379270833333,-0.07998302083333333,0.783949
C,13.518790729166668,-0.30153302083333333,-0.392971
C,-13.084609270833333,1.0913669791666667,1.262989
C,13.216180729166666,-1.7901130208333333,-0.532731
C,-13.373079270833333,2.1096569791666666,0.165299
C,11.056570729166667,-0.024603020833333336,0.255529
C,-10.983839270833332,0.43822697916666664,-0.034781
C,12.280600729166666,-2.2127230208333337,0.596709
C,-12.060129270833333,2.7083269791666664,-0.338361
C,11.116960729166667,-1.2709230208333333,0.813729
C,-10.959819270833334,1.6936269791666667,-0.575091
C,11.872030729166667,0.7375069791666667,-2.011851
C,12.625510729166667,1.9782069791666668,0.036589
C,-13.031989270833334,-1.0500530208333334,-0.086451
C,-11.719719270833334,-0.8340830208333333,2.046809
C,9.878960729166668,0.8345069791666667,0.337049
C,-9.920579270833333,-0.5455730208333333,-0.218741
C,10.076350729166666,-1.8403030208333333,1.746909
C,-9.858599270833333,2.2091369791666664,-1.470171
C,8.567060729166666,0.4427269791666667,0.285919
C,-8.568589270833334,-0.3300830208333333,-0.225191
C,7.422320729166667,1.3044369791666668,0.347939
C,-7.552439270833333,-1.3307230208333334,-0.385521
C,7.629150729166667,2.7864769791666664,0.536849
C,-7.9614492708333335,-2.7617730208333335,-0.628401
C,6.161760729166667,0.7321369791666666,0.227859
C,-6.223959270833333,-0.9338730208333333,-0.305041
C,4.900680729166667,1.3664869791666667,0.258289
C,-5.059079270833333,-1.7240830208333333,-0.422001
C,3.7038107291666664,0.6746669791666667,0.125759
C,-3.7801392708333337,-1.1942830208333333,-0.320681
C,2.4060707291666663,1.2383669791666667,0.149629
C,-2.5559492708333336,-1.8996930208333334,-0.419611
C,2.2568107291666664,2.7313169791666665,0.341399
C,-2.5810992708333336,-3.3898830208333335,-0.662751
C,1.2335707291666667,0.47466697916666667,0.003929
C,-1.3627992708333334,-1.1767930208333333,-0.282471
C,1.1292907291666665,-0.9108630208333333,-0.196431
C,-0.04732927083333343,-1.6624830208333332,-0.333071
H,13.977000729166667,-0.13039302083333332,0.591129
H,14.254110729166667,0.024856979166666668,-1.138751
H,-12.577269270833334,1.6026369791666666,2.092739
H,-14.016629270833333,0.6832069791666667,1.673939
H,14.139890729166666,-2.3794430208333335,-0.504631
H,12.744950729166668,-1.9923130208333333,-1.502371
H,-14.032789270833334,2.9021869791666663,0.537059
H,-13.902459270833333,1.6300969791666666,-0.666811
H,12.847360729166667,-2.2998430208333334,1.538929
H,11.883550729166666,-3.2221230208333336,0.413419
H,-11.692999270833333,3.4540269791666667,0.387219
H,-12.230549270833333,3.2740169791666665,-1.263751
H,11.675860729166667,-0.23149302083333334,-2.481091
H,12.678930729166666,1.2282769791666668,-2.568851
H,10.966350729166667,1.3416669791666667,-2.121631
H,12.778830729166668,1.9450369791666666,1.120359
H,11.867290729166667,2.7360769791666666,-0.178961
H,13.558830729166667,2.3204569791666665,-0.424661
H,-13.442159270833333,-0.5509530208333333,-0.968951
H,-13.867139270833333,-1.4595530208333334,0.493909
H,-12.432889270833334,-1.8957830208333333,-0.438351
H,-11.065489270833334,-0.20332302083333334,2.657319
H,-11.169549270833333,-1.7474330208333333,1.805219
H,-12.582869270833333,-1.1193430208333333,2.659489
H,10.071290729166666,1.9033169791666666,0.365459
H,-10.253139270833334,-1.5798030208333333,-0.279631
H,9.432910729166666,-1.0753730208333334,2.183439
H,10.573200729166667,-2.3829230208333336,2.562129
H,9.431590729166667,-2.5750730208333334,1.244009
H,-9.270399270833334,1.4086669791666666,-1.920601
H,-9.164109270833332,2.8645469791666667,-0.924811
H,-10.284159270833333,2.8205669791666663,-2.275071
H,8.349490729166666,-0.6143330208333333,0.152229
H,-8.206029270833334,0.6809369791666667,-0.056021
H,8.195000729166667,2.9905169791666664,1.453729
H,6.690190729166667,3.3373869791666664,0.597429
H,8.208220729166667,3.2113069791666664,-0.293061
H,-8.604789270833333,-2.8418530208333337,-1.512721
H,-8.537029270833333,-3.1562530208333337,0.218849
H,-7.107009270833333,-3.4217830208333337,-0.780211
H,6.1399007291666665,-0.3500430208333334,0.093049
H,-6.0533692708333335,0.12867697916666668,-0.126811
H,4.862840729166667,2.4436369791666666,0.391219
H,-5.164979270833333,-2.7907830208333335,-0.595911
H,3.7823107291666664,-0.40228302083333334,-0.006921
H,-3.704579270833334,-0.12096302083333334,-0.143811
H,2.7019807291666664,3.0628069791666666,1.287719
H,1.2050707291666667,3.0277169791666663,0.346499
H,2.757260729166666,3.2920969791666663,-0.457871
H,-3.1310792708333337,-3.6279530208333335,-1.580951
H,-3.0866392708333334,-3.9141530208333335,0.157389
H,-1.5825492708333333,-3.8163930208333334,-0.759641
H,0.3031507291666666,1.0361769791666666,0.051199
H,-1.4878592708333334,-0.10863302083333333,-0.113331
H,2.0523507291666663,-1.4819230208333334,-0.258071
H,0.09447072916666657,-2.7280830208333335,-0.490711
C,43.84231072916667,0.5822769791666667,-0.520851
C,19.390520729166667,-0.07998302083333333,0.783949
C,45.10569072916667,-0.30153302083333333,-0.392971
C,18.502290729166667,1.0913669791666667,1.262989
C,44.803080729166666,-1.7901130208333333,-0.532731
C,18.213820729166667,2.1096569791666666,0.165299
C,42.643470729166665,-0.024603020833333336,0.255529
C,20.603060729166668,0.43822697916666664,-0.034781
C,43.867500729166665,-2.2127230208333337,0.596709
C,19.526770729166667,2.7083269791666664,-0.338361
C,42.703860729166664,-1.2709230208333333,0.813729
C,20.627080729166664,1.6936269791666667,-0.575091
C,43.45893072916667,0.7375069791666667,-2.011851
C,44.21241072916666,1.9782069791666668,0.036589
C,18.554910729166664,-1.0500530208333334,-0.086451
C,19.867180729166666,-0.8340830208333333,2.046809
C,41.465860729166664,0.8345069791666667,0.337049
C,21.666320729166667,-0.5455730208333333,-0.218741
C,41.66325072916666,-1.8403030208333333,1.746909
C,21.72830072916667,2.2091369791666664,-1.470171
C,40.15396072916667,0.4427269791666667,0.285919
C,23.018310729166664,-0.3300830208333333,-0.225191
C,39.009220729166664,1.3044369791666668,0.347939
C,24.034460729166668,-1.3307230208333334,-0.385521
C,39.21605072916667,2.7864769791666664,0.536849
C,23.625450729166666,-2.7617730208333335,-0.628401
C,37.748660729166666,0.7321369791666666,0.227859
C,25.362940729166667,-0.9338730208333333,-0.305041
C,36.487580729166666,1.3664869791666667,0.258289
C,26.527820729166667,-1.7240830208333333,-0.422001
C,35.29071072916667,0.6746669791666667,0.125759
C,27.806760729166665,-1.1942830208333333,-0.320681
C,33.992970729166665,1.2383669791666667,0.149629
C,29.030950729166666,-1.8996930208333334,-0.419611
C,33.843710729166666,2.7313169791666665,0.341399
C,29.005800729166666,-3.3898830208333335,-0.662751
C,32.820470729166665,0.47466697916666667,0.003929
C,30.224100729166665,-1.1767930208333333,-0.282471
C,32.71619072916667,-0.9108630208333333,-0.196431
C,31.539570729166666,-1.6624830208333332,-0.333071
H,45.56390072916667,-0.13039302083333332,0.591129
H,45.84101072916667,0.024856979166666668,-1.138751
H,19.009630729166666,1.6026369791666666,2.092739
H,17.570270729166666,0.6832069791666667,1.673939
H,45.726790729166666,-2.3794430208333335,-0.504631
H,44.33185072916667,-1.9923130208333333,-1.502371
H,17.554110729166666,2.9021869791666663,0.537059
H,17.684440729166667,1.6300969791666666,-0.666811
H,44.43426072916667,-2.2998430208333334,1.538929
H,43.470450729166664,-3.2221230208333336,0.413419
H,19.893900729166667,3.4540269791666667,0.387219
H,19.356350729166667,3.2740169791666665,-1.263751
H,43.262760729166665,-0.23149302083333334,-2.481091
H,44.265830729166666,1.2282769791666668,-2.568851
H,42.55325072916666,1.3416669791666667,-2.121631
H,44.36573072916667,1.9450369791666666,1.120359
H,43.45419072916667,2.7360769791666666,-0.178961
H,45.145730729166665,2.3204569791666665,-0.424661
H,18.144740729166667,-0.5509530208333333,-0.968951
H,17.719760729166666,-1.4595530208333334,0.493909
H,19.154010729166664,-1.8957830208333333,-0.438351
H,20.521410729166668,-0.20332302083333334,2.657319
H,20.417350729166667,-1.7474330208333333,1.805219
H,19.004030729166665,-1.1193430208333333,2.659489
H,41.65819072916666,1.9033169791666666,0.365459
H,21.333760729166666,-1.5798030208333333,-0.279631
H,41.019810729166664,-1.0753730208333334,2.183439
H,42.160100729166665,-2.3829230208333336,2.562129
H,41.018490729166665,-2.5750730208333334,1.244009
H,22.316500729166666,1.4086669791666666,-1.920601
H,22.422790729166667,2.8645469791666667,-0.924811
H,21.302740729166665,2.8205669791666663,-2.275071
H,39.93639072916667,-0.6143330208333333,0.152229
H,23.380870729166666,0.6809369791666667,-0.056021
H,39.781900729166665,2.9905169791666664,1.453729
H,38.277090729166666,3.3373869791666664,0.597429
H,39.79512072916667,3.2113069791666664,-0.293061
H,22.982110729166667,-2.8418530208333337,-1.512721
H,23.049870729166667,-3.1562530208333337,0.218849
H,24.479890729166666,-3.4217830208333337,-0.780211
H,37.72680072916667,-0.3500430208333334,0.093049
H,25.533530729166667,0.12867697916666668,-0.126811
H,36.44974072916666,2.4436369791666666,0.391219
H,26.421920729166665,-2.7907830208333335,-0.595911
H,35.36921072916667,-0.40228302083333334,-0.006921
H,27.882320729166665,-0.12096302083333334,-0.143811
H,34.288880729166664,3.0628069791666666,1.287719
H,32.791970729166664,3.0277169791666663,0.346499
H,34.34416072916667,3.2920969791666663,-0.457871
H,28.455820729166668,-3.6279530208333335,-1.580951
H,28.500260729166666,-3.9141530208333335,0.157389
H,30.004350729166667,-3.8163930208333334,-0.759641
H,31.890050729166667,1.0361769791666666,0.051199
H,30.099040729166667,-0.10863302083333333,-0.113331
H,33.63925072916667,-1.4819230208333334,-0.258071
H,31.681370729166666,-2.7280830208333335,-0.490711

