--Link1--
%Mem=30GB
%CPU=0-29
%Chk=pheo-a-s0.chk
#n wB97XD/Def2TZVP Opt 

pheo-a-s0

  0  1
C,-6.719147050724637,-2.1072713550724638,0.461241
C,-6.352938050724637,2.5857906449275365,1.396141
C,-10.937031050724636,3.1423156449275362,-0.225321
C,-11.425583050724637,-1.6316583550724637,-0.934466
N,-6.784505050724637,0.2640786449275363,0.81563
C,-6.109967050724637,-0.9124823550724638,0.825566
C,-4.659263050724637,-0.7453453550724637,1.270042
C,-4.666474050724637,0.7013846449275363,1.828942
C,-6.0041970507246365,1.2321286449275362,1.31403
C,-4.570443050724637,0.7651846449275362,3.361374
C,-3.665421050724637,-0.9600753550724638,0.110544
C,-2.204006050724637,-0.9375263550724637,0.555473
C,-1.2327420507246372,-1.2209633550724637,-0.574424
O,-1.533804050724637,-1.6460263550724639,-1.663885
O,0.0319009492753628,-0.9519613550724637,-0.205573
N,-8.650182050724638,2.567589644927536,0.484908
C,-7.550374050724637,3.1961246449275365,1.001431
C,-7.854271050724637,4.605912644927536,1.055072
C,-9.135160050724638,4.781952644927536,0.544726
C,-9.656669050724638,3.4653706449275363,0.208446
C,-6.900963050724637,5.655156644927536,1.53734
C,-9.813301050724636,6.070191644927536,0.384987
C,-10.657146050724636,6.433088644927536,-0.595212
N,-10.814122050724636,0.6979776449275362,-0.485316
C,-11.477499050724637,1.8753206449275366,-0.537308
C,-12.867463050724638,1.6846976449275362,-0.971661
C,-13.016623050724636,0.3369066449275363,-1.180453
C,-11.713871050724636,-0.2601753550724637,-0.867575
C,-13.881119050724637,2.7752916449275364,-1.139097
C,-14.228733050724637,-0.4048973550724637,-1.670403
C,-14.234821050724637,-0.6570483550724637,-3.188287
N,-9.106552050724638,-1.4428403550724638,-0.214715
C,-10.190253050724637,-2.212424355072464,-0.626376
C,-9.781738050724638,-3.5908703550724637,-0.644327
C,-8.447037050724637,-3.5814093550724637,-0.233761
C,-8.055094050724637,-2.2415063550724637,0.029238
C,-10.618552050724636,-4.772197355072464,-1.020056
C,-7.316676050724637,-4.469341355072464,0.030544
O,-7.241226050724637,-5.674391355072464,-0.037341
C,-6.119842050724637,-3.5120763550724634,0.449379
C,-5.528149050724637,-3.9887573550724635,1.764743
O,-5.8053930507246365,-3.5603533550724635,2.859319
O,-4.659252050724637,-4.989963355072464,1.555721
C,-4.1290900507246375,-5.625231355072464,2.718604
C,1.062185949275363,-1.2307163550724636,-1.179742
C,2.381403949275363,-0.8846683550724638,-0.568999
C,3.361305949275363,-0.13024135507246373,-1.100434
C,3.2819149492753628,0.5429906449275362,-2.448832
C,4.656419949275363,0.07291564492753627,-0.340858
C,5.891467949275363,-0.5778633550724637,-0.991331
C,7.167860949275363,-0.37984135507246375,-0.166525
C,8.464614949275363,-0.9264263550724637,-0.796452
C,8.423485949275364,-2.451663355072464,-0.967151
C,9.685369949275364,-0.46654535507246375,0.025557
C,11.057129949275364,-0.7565203550724637,-0.594769
C,12.217977949275364,-0.18743035507246372,0.229445
C,13.624753949275362,-0.3708773550724637,-0.374421
C,14.018153949275362,-1.8510383550724638,-0.482317
C,14.656428949275364,0.4451346449275363,0.429777
C,16.064983949275362,0.5211306449275362,-0.170986
C,17.00462894927536,1.4370186449275364,0.621838
C,18.46485594927536,1.482261644927536,0.132725
C,18.59688294927536,2.0445466449275362,-1.289222
C,19.338658949275363,2.276919644927536,1.112118
H,-5.599525050724637,3.2579876449275362,1.811191
H,-11.617597050724637,3.9878866449275363,-0.316773
H,-12.223564050724637,-2.3081373550724638,-1.245269
H,-4.432858050724637,-1.4673403550724635,2.071243
H,-3.842983050724637,1.2980756449275361,1.400878
H,-3.603548050724637,0.3666236449275363,3.70896
H,-4.661209050724637,1.7998106449275362,3.728048
H,-5.370159050724637,0.16846264492753626,3.828238
H,-3.8610440507246375,-1.9223613550724639,-0.385528
H,-3.8327340507246372,-0.19160235507246373,-0.663058
H,-1.917930050724637,0.021771644927536277,1.016387
H,-2.0227350507246373,-1.7001063550724638,1.334916
H,-6.007963050724637,5.716626644927536,0.892002
H,-7.364064050724637,6.651160644927536,1.547054
H,-6.545260050724637,5.439867644927536,2.55866
H,-9.566034050724637,6.8215626449275355,1.144461
H,-10.912609050724637,5.768702644927536,-1.424139
H,-11.098662050724636,7.433032644927536,-0.607771
H,-14.012508050724637,3.3584356449275363,-0.211869
H,-13.587645050724637,3.4907336449275363,-1.926832
H,-14.865900050724637,2.3719506449275363,-1.416446
H,-14.312396050724637,-1.3704253550724639,-1.142489
H,-15.135883050724637,0.15876064492753628,-1.396412
H,-14.209829050724636,0.29217664492753626,-3.746557
H,-13.356448050724637,-1.2439563550724637,-3.500479
H,-15.138593050724637,-1.2087443550724637,-3.494577
H,-11.510640050724637,-4.856494355072464,-0.37698
H,-10.976339050724636,-4.700232355072464,-2.061018
H,-10.034381050724637,-5.697022355072464,-0.920445
H,-5.347614050724637,-3.6467903550724636,-0.326514
H,-3.452198050724637,-6.408735355072464,2.356659
H,-3.581664050724637,-4.904853355072464,3.345574
H,-4.935964050724637,-6.0687763550724645,3.321244
H,1.0047969492753628,-2.3032573550724638,-1.43833
H,0.844926949275363,-0.6738843550724638,-2.102328
H,2.546154949275363,-1.3265493550724639,0.42097
H,3.605579949275363,1.5952176449275361,-2.372802
H,3.957699949275363,0.06068264492753628,-3.175984
H,2.272689949275363,0.5284396449275363,-2.881749
H,4.843709949275363,1.1590576449275365,-0.238089
H,4.543424949275363,-0.32079635507246373,0.682926
H,5.686022949275363,-1.6524463550724637,-1.132404
H,6.048446949275363,-0.15989835507246372,-2.00171
H,7.298997949275362,0.7018946449275363,0.018517
H,7.033243949275363,-0.8381773550724637,0.831876
H,8.557185949275363,-0.47525935507246375,-1.80425
H,7.570709949275363,-2.7727603550724638,-1.584522
H,9.333560949275363,-2.833694355072464,-1.453951
H,8.333670949275364,-2.9528363550724634,0.012693
H,9.600897949275364,0.6225066449275363,0.194148
H,9.634236949275364,-0.9273273550724638,1.030698
H,11.186765949275363,-1.8439803550724636,-0.71787
H,11.092349949275363,-0.32890235507246374,-1.614663
H,12.042322949275363,0.8931996449275362,0.380891
H,12.201601949275362,-0.6354143550724638,1.241541
H,13.600429949275362,0.048246644927536275,-1.399867
H,13.298342949275362,-2.4238743550724635,-1.086668
H,15.005136949275363,-1.9793263550724638,-0.952161
H,14.061083949275362,-2.3183663550724636,0.517286
H,14.271139949275364,1.474604644927536,0.54541
H,14.717303949275363,0.034074644927536285,1.455774
H,16.51165494927536,-0.4875873550724637,-0.221322
H,15.988015949275363,0.8714246449275364,-1.215675
H,16.596976949275362,2.4663486449275362,0.626103
H,17.001329949275362,1.1122126449275362,1.6785
H,18.84054794927536,0.44069764492753627,0.118438
H,18.210305949275362,3.0776066449275365,-1.340976
H,19.651434949275362,2.069610644927536,-1.608934
H,18.04414194927536,1.4440906449275364,-2.028185
H,19.291506949275362,1.8556276449275364,2.129634
H,20.395299949275362,2.2800336449275362,0.798429
H,19.007577949275362,3.3283116449275365,1.172621
H,-8.727797050724638,1.5615756449275362,0.371539
H,-9.200644050724637,-0.42793235507246374,-0.138724
C,32.11474594927536,-2.1072713550724638,0.461241
C,32.48095494927536,2.5857906449275365,1.396141
C,27.896861949275362,3.1423156449275362,-0.225321
C,27.40830994927536,-1.6316583550724637,-0.934466
N,32.049387949275356,0.2640786449275363,0.81563
C,32.72392594927536,-0.9124823550724638,0.825566
C,34.17462994927536,-0.7453453550724637,1.270042
C,34.16741894927536,0.7013846449275363,1.828942
C,32.82969594927536,1.2321286449275362,1.31403
C,34.26344994927536,0.7651846449275362,3.361374
C,35.16847194927536,-0.9600753550724638,0.110544
C,36.62988694927536,-0.9375263550724637,0.555473
C,37.60115094927536,-1.2209633550724637,-0.574424
O,37.300088949275356,-1.6460263550724639,-1.663885
O,38.86579394927536,-0.9519613550724637,-0.205573
N,30.18371094927536,2.567589644927536,0.484908
C,31.28351894927536,3.1961246449275365,1.001431
C,30.97962194927536,4.605912644927536,1.055072
C,29.69873294927536,4.781952644927536,0.544726
C,29.17722394927536,3.4653706449275363,0.208446
C,31.93292994927536,5.655156644927536,1.53734
C,29.02059194927536,6.070191644927536,0.384987
C,28.176746949275362,6.433088644927536,-0.595212
N,28.01977094927536,0.6979776449275362,-0.485316
C,27.356393949275358,1.8753206449275366,-0.537308
C,25.96642994927536,1.6846976449275362,-0.971661
C,25.81726994927536,0.3369066449275363,-1.180453
C,27.120021949275362,-0.2601753550724637,-0.867575
C,24.95277394927536,2.7752916449275364,-1.139097
C,24.60515994927536,-0.4048973550724637,-1.670403
C,24.59907194927536,-0.6570483550724637,-3.188287
N,29.72734094927536,-1.4428403550724638,-0.214715
C,28.64363994927536,-2.212424355072464,-0.626376
C,29.05215494927536,-3.5908703550724637,-0.644327
C,30.386855949275358,-3.5814093550724637,-0.233761
C,30.77879894927536,-2.2415063550724637,0.029238
C,28.215340949275358,-4.772197355072464,-1.020056
C,31.517216949275358,-4.469341355072464,0.030544
O,31.59266694927536,-5.674391355072464,-0.037341
C,32.71405094927536,-3.5120763550724634,0.449379
C,33.30574394927536,-3.9887573550724635,1.764743
O,33.02849994927536,-3.5603533550724635,2.859319
O,34.17464094927536,-4.989963355072464,1.555721
C,34.70480294927536,-5.625231355072464,2.718604
C,39.896078949275356,-1.2307163550724636,-1.179742
C,41.215296949275356,-0.8846683550724638,-0.568999
C,42.19519894927536,-0.13024135507246373,-1.100434
C,42.11580794927536,0.5429906449275362,-2.448832
C,43.490312949275356,0.07291564492753627,-0.340858
C,44.725360949275355,-0.5778633550724637,-0.991331
C,46.00175394927536,-0.37984135507246375,-0.166525
C,47.29850794927536,-0.9264263550724637,-0.796452
C,47.25737894927536,-2.451663355072464,-0.967151
C,48.51926294927536,-0.46654535507246375,0.025557
C,49.89102294927536,-0.7565203550724637,-0.594769
C,51.05187094927536,-0.18743035507246372,0.229445
C,52.45864694927536,-0.3708773550724637,-0.374421
C,52.85204694927536,-1.8510383550724638,-0.482317
C,53.49032194927536,0.4451346449275363,0.429777
C,54.89887694927536,0.5211306449275362,-0.170986
C,55.83852194927536,1.4370186449275364,0.621838
C,57.29874894927536,1.482261644927536,0.132725
C,57.43077594927536,2.0445466449275362,-1.289222
C,58.17255194927536,2.276919644927536,1.112118
H,33.23436794927536,3.2579876449275362,1.811191
H,27.21629594927536,3.9878866449275363,-0.316773
H,26.61032894927536,-2.3081373550724638,-1.245269
H,34.401034949275356,-1.4673403550724635,2.071243
H,34.99090994927536,1.2980756449275361,1.400878
H,35.23034494927536,0.3666236449275363,3.70896
H,34.17268394927536,1.7998106449275362,3.728048
H,33.46373394927536,0.16846264492753626,3.828238
H,34.97284894927536,-1.9223613550724639,-0.385528
H,35.00115894927536,-0.19160235507246373,-0.663058
H,36.91596294927536,0.021771644927536277,1.016387
H,36.81115794927536,-1.7001063550724638,1.334916
H,32.82592994927536,5.716626644927536,0.892002
H,31.46982894927536,6.651160644927536,1.547054
H,32.28863294927536,5.439867644927536,2.55866
H,29.267858949275357,6.8215626449275355,1.144461
H,27.92128394927536,5.768702644927536,-1.424139
H,27.735230949275362,7.433032644927536,-0.607771
H,24.82138494927536,3.3584356449275363,-0.211869
H,25.246247949275357,3.4907336449275363,-1.926832
H,23.96799294927536,2.3719506449275363,-1.416446
H,24.52149694927536,-1.3704253550724639,-1.142489
H,23.69800994927536,0.15876064492753628,-1.396412
H,24.62406394927536,0.29217664492753626,-3.746557
H,25.47744494927536,-1.2439563550724637,-3.500479
H,23.69529994927536,-1.2087443550724637,-3.494577
H,27.323252949275357,-4.856494355072464,-0.37698
H,27.85755394927536,-4.700232355072464,-2.061018
H,28.79951194927536,-5.697022355072464,-0.920445
H,33.48627894927536,-3.6467903550724636,-0.326514
H,35.38169494927536,-6.408735355072464,2.356659
H,35.25222894927536,-4.904853355072464,3.345574
H,33.89792894927536,-6.0687763550724645,3.321244
H,39.838689949275356,-2.3032573550724638,-1.43833
H,39.67881994927536,-0.6738843550724638,-2.102328
H,41.38004794927536,-1.3265493550724639,0.42097
H,42.439472949275356,1.5952176449275361,-2.372802
H,42.79159294927536,0.06068264492753628,-3.175984
H,41.10658294927536,0.5284396449275363,-2.881749
H,43.67760294927536,1.1590576449275365,-0.238089
H,43.37731794927536,-0.32079635507246373,0.682926
H,44.51991594927536,-1.6524463550724637,-1.132404
H,44.88233994927536,-0.15989835507246372,-2.00171
H,46.13289094927536,0.7018946449275363,0.018517
H,45.86713694927536,-0.8381773550724637,0.831876
H,47.39107894927536,-0.47525935507246375,-1.80425
H,46.40460294927536,-2.7727603550724638,-1.584522
H,48.167453949275355,-2.833694355072464,-1.453951
H,47.16756394927536,-2.9528363550724634,0.012693
H,48.43479094927536,0.6225066449275363,0.194148
H,48.46812994927536,-0.9273273550724638,1.030698
H,50.02065894927536,-1.8439803550724636,-0.71787
H,49.92624294927536,-0.32890235507246374,-1.614663
H,50.87621594927536,0.8931996449275362,0.380891
H,51.03549494927536,-0.6354143550724638,1.241541
H,52.434322949275355,0.048246644927536275,-1.399867
H,52.132235949275355,-2.4238743550724635,-1.086668
H,53.83902994927536,-1.9793263550724638,-0.952161
H,52.89497694927536,-2.3183663550724636,0.517286
H,53.10503294927536,1.474604644927536,0.54541
H,53.55119694927536,0.034074644927536285,1.455774
H,55.34554794927536,-0.4875873550724637,-0.221322
H,54.82190894927536,0.8714246449275364,-1.215675
H,55.43086994927536,2.4663486449275362,0.626103
H,55.83522294927536,1.1122126449275362,1.6785
H,57.67444094927536,0.44069764492753627,0.118438
H,57.044198949275355,3.0776066449275365,-1.340976
H,58.48532794927536,2.069610644927536,-1.608934
H,56.87803494927536,1.4440906449275364,-2.028185
H,58.12539994927536,1.8556276449275364,2.129634
H,59.22919294927536,2.2800336449275362,0.798429
H,57.84147094927536,3.3283116449275365,1.172621
H,30.106095949275357,1.5615756449275362,0.371539
H,29.63324894927536,-0.42793235507246374,-0.138724

