%nproc=4
%Mem=2GB
# td=(NStates=1) CAM-B3LYP/6-31G(d,p) 

TD

0 1
12 -7.09951162046205  0.62264050475048  0.07899594819482
 6 -4.83718259935994 -2.00806291759176  0.53583921882188
 6 -4.70151945824582  2.80128445574557  1.15145860306031
 6 -9.28354294309431  3.13473587298730 -0.27460879387939
 6 -9.54746577417742 -1.74222439743974 -0.94692280728073
 7 -5.14733751535154  0.39595085558556  0.65585310571057
 6 -4.33782138743874 -0.70664128452845  0.74063596639664
 6 -2.91854281548155 -0.46757202930293  1.26008144934493
 6 -3.06342663186319  1.03173430593059  1.66321912831283
 6 -4.34310239693969  1.49325970637064  1.11043730493049
 6 -2.97889568056806  1.13410989828983  3.26679020512051
 6 -2.06074035493549 -0.66061007110711  0.04994432023202
 6 -0.54064231823182 -0.41444967636764  0.45794437733773
 6  0.45528490689069 -0.67165059715972 -0.66374802660266
 8  0.20679122882288 -1.00695209900990 -1.86847612791279
 8  1.71443846884688 -0.50575548234823 -0.30210443054305
 7 -7.00432804130413  2.58779018631863  0.31728688548855
 6 -5.94820195119512  3.34596555045505  0.81873985798580
 6 -6.30618860856086  4.74320495089509  0.79901766626663
 6 -7.62238283368337  4.89433932063206  0.37224413141314
 6 -8.02347290049005  3.44446473777378  0.15066540574057
 6 -5.34591037223722  5.78610970227023  1.36241276647665
 6 -8.45758497089709  6.08417348534853  0.20355037693769
 6 -8.08010720852085  7.30142622692269  0.03174891259126
 7 -9.08899393509351  0.68945542384238 -0.50285199049905
 6 -9.93117477647765  1.85914659725973 -0.55154027822782
 6 -11.20334507740774  1.40180117051705 -1.08062281188119
 6 -11.19203772447245  0.07528140544054 -1.28520778697870
 6 -9.85956584028403 -0.35278376647665 -0.90920022292229
 6 -12.24705294739474  2.46284856575658 -1.29273980488049
 6 -12.28215826152615 -0.77019808200820 -1.67098227542754
 6 -12.42501883388339 -1.14498838403840 -3.10291839723972
 7 -7.25098135023502 -1.41386074767477 -0.04709782848285
 6 -8.29933515581558 -2.17789372887289 -0.50849865576558
 6 -7.78844651215121 -3.63468765166517 -0.59798822782278
 6 -6.56086160816082 -3.61356567206721 -0.06883937603760
 6 -6.21349612781278 -2.23024917941794  0.24122574397440
 6 -8.56197654235424 -4.79633245214521 -0.95945549254925
 6 -5.29794633233323 -4.43888987428743  0.13460196009601
 8 -5.08301966376638 -5.64095674927493  0.09683571837184
 6 -4.18207161716172 -3.28316125022502  0.60525141714171
 6 -3.62330669486949 -3.71019710431043  1.85409658935894
 8 -3.78145179977998 -3.20798403120312  2.98058177347735
 8 -2.75309665756576 -4.77580573307331  1.71173926192619
 6 -2.19853249174917 -5.20631110041004  3.00397173417342
 6  2.85584936153615 -0.55522478017802 -1.28532390729073
 6  3.98552187458746 -0.42759660906091 -0.56236876557656
 6  5.11802540994099  0.27262058655866 -0.97777767796780
 6  5.06080349694969  1.17999253555356 -2.14688177927793
 6  6.36369282688269  0.43211201810181 -0.12666935313531
 6  7.56411415031503  0.09429754785479 -0.98457812651265
 6  8.79659874227423 -0.11694142764276  0.04855226102610
 6  10.17341823482348 -0.51482858115812 -0.71830822522252
 6  9.95617280348035 -1.96202553745375 -1.30291195269527
 6  11.32599371647165 -0.32444333493349  0.12034223292329
 6  12.65518268726873 -0.59969648554855 -0.59321986178618
 6  13.97378306610661 -0.03655041824182  0.28521573457346
 6  15.29658500250025 -0.07198981068107 -0.40957400770077
 6  15.59243334553455 -1.53038582438244 -0.97661494129413
 6  16.40709396339634  0.36546093219322  0.55858504320432
 6  17.76727243154316  0.57238536433643 -0.17951623152315
 6  18.75663106260626  1.28581042784278  0.64721708340834
 6  20.21123880368037  1.41660740534053  0.10106971057106
 6  20.30287051595159  2.23638928692869 -1.19733555495550
 6  21.25480335443545  1.87961233063306  1.25700240184018
 1 -3.99111937043704  3.67926630833083  1.45947046804680
 1 -10.08936268796880  3.93264084798480 -0.30078438103810
 1 -10.11669093089309 -2.60638069276928 -1.08779232673267
 1 -2.65673436413641 -1.18842850655065  2.15869310791079
 1 -2.31661129912991  1.79239772837284  1.11604597109711
 1 -2.01281500480048  0.74810029902990  3.37952816621662
 1 -3.27626241244124  2.16398585518552  3.61853642114211
 1 -3.57503848504851  0.35196956465647  3.75552943744374
 1 -2.00287281418142 -1.73719964036404 -0.53049803580358
 1 -2.19561376357636  0.38721081238124 -0.66423152475248
 1 -0.24658175217522  0.65081300480048  0.82996524842484
 1 -0.05644159785979 -0.93783675907591  1.51101397729773
 1 -4.74750691839184  6.31245642074207  0.69126090829083
 1 -6.00128479877988  6.68739853865387  1.69434412361236
 1 -4.79198242704270  5.34439961136114  2.07682136083608
 1 -9.51594909380938  5.87439037513751  0.20108795329533
 1 -8.89778041844184  8.09215780528053 -0.30927033373337
 1 -7.07380241684168  7.71436200540054 -0.23230770137014
 1 -11.94817022982298  3.29904721002100 -1.81317761616162
 1 -13.12877809130913  2.07203284138414 -1.81652517621762
 1 -12.52645960736074  2.98832191759176 -0.30900239823982
 1 -12.40722325042504 -1.57053945214521 -0.98218842674267
 1 -13.31908791239124 -0.27540135313531 -1.44655201220122
 1 -13.43070353655365 -1.52559379857986 -3.35959895759576
 1 -12.39353952795280 -0.18257698359836 -3.85224279927993
 1 -11.66798014561456 -1.81095403940394 -3.46069518501850
 1 -8.88190908680868 -4.68254110241024 -2.01716929832983
 1 -7.89477317831783 -5.59334944314431 -1.17155138323832
 1 -9.13162532833283 -5.07824461146115 -0.10461871807181
 1 -3.42924305630563 -3.51298288278828 -0.06439309230923
 1 -1.42504359435944 -4.48897727502750  3.49533622062206
 1 -2.96593178057806 -5.43212385478548  3.62364958705871
 1 -1.67584901140114 -5.96333051015102  2.78274497739774
 1  2.70265493659366 -1.62734242414241 -1.85353943024302
 1  2.72673437363736  0.14609752815282 -2.06388840864086
 1  3.96572579687969 -1.03619162536254  0.38300067626763
 1  4.00124106040604  1.39432052835284 -2.49357269956996
 1  5.69657295569557  2.30070446064606 -1.95445980058006
 1  5.56176149894989  0.69538986918692 -2.91532283158316
 1  6.51886490979098  1.52393862156216  0.34466196389639
 1  6.25981932993299 -0.13485673457346  0.83685469256926
 1  7.42304604670467 -0.90472154385439 -1.70246437513751
 1  7.71175270627063  0.86605348184818 -1.75092523942394
 1  9.00982707990799  0.80831344784478  0.31500546304630
 1  8.41002882568257 -1.08071642704270  0.70787540614061
 1  10.14448616011601  0.07023178947895 -1.49801363196320
 1  9.12310880728073 -1.84975201950195 -1.95826078727873
 1  10.75732881758176 -2.54351086368637 -1.97993417941794
 1  9.82392986658666 -2.71368299089909 -0.34567665836584
 1  11.26754151635163  0.83360776827683  0.39830179357936
 1  11.35529593929393 -0.96528886698670  1.19885735873587
 1  13.03890962666267 -1.66307316871687 -0.76147448234823
 1  12.59982888888889 -0.13876439743974 -1.66497486128613
 1  13.65756725992599  1.17455071057106  0.45900256075608
 1  13.85174126442644 -0.62295473277328  1.09224439413941
 1  14.98454084618462  0.64500436083608 -1.38144780428043
 1  15.35000700170017 -2.31355808170817 -0.16017361496150
 1  14.95280281208121 -1.92709090269027 -1.82617033743374
 1  16.72026008460846 -1.67434136273627 -1.22886499529953
 1  16.17735294499450  1.43863293599360  0.95955937693769
 1  16.64741644364436 -0.55106150185018  1.42600553225323
 1  18.22130132203220 -0.39274623842384 -0.43672968056806
 1  17.66889697089709  1.01828308680868 -1.09389287318732
 1  18.41257994079408  2.35322722232223  0.92006710761076
 1  18.83897017441744  0.84348796009601  1.66444279587959
 1  20.73271333803380  0.34990142594259 -0.11231348094809
 1  19.70069690299030  3.29515850075007 -1.29427969746975
 1  21.37316343024303  2.44454033193319 -1.43248450245025
 1  19.91662249544954  1.57738914121412 -2.09317974127413
 1  21.11032104740474  1.13821312511251  2.08936837843784
 1  22.25654029452945  1.78891742294229  0.97146141234123
 1  21.10742327492749  2.85325900210021  1.68353428462846

