%nproc=4
%Mem=2GB
# td=(NStates=1) CAM-B3LYP/6-31G(d,p) 

TD

0 1
12 -7.23743541284128  0.62316055675568  0.05295334393439
 6 -4.92490137123712 -1.93469558085809  0.53921955685569
 6 -4.80848015431543  2.84191851915192  1.18989244644464
 6 -9.44877946674667  3.03279567896790 -0.28779011201120
 6 -9.54117514511451 -1.79259943494349 -0.90846896189619
 7 -5.19711249284929  0.48531979247925  0.75470299069907
 6 -4.35694329962996 -0.67987860826083  0.70637254005401
 6 -2.92514347554755 -0.33620889298930  1.10148558975898
 6 -3.04935522472247  1.05014614711471  1.67778058445845
 6 -4.35115320202020  1.50998137853785  1.21598785998600
 6 -2.90084787578758  1.14745123242324  3.21087461356136
 6 -1.88932321322132 -0.44966897699770 -0.03560423462346
 6 -0.51448970297030 -0.35152338373837  0.38876745964596
 6  0.50419979837984 -0.55970940304030 -0.74283593539354
 8  0.28938948864886 -0.99546094989499 -1.86350563086309
 8  1.75906293129313 -0.33300820762076 -0.33515773587359
 7 -7.11658926742674  2.55723713101310  0.38660381718172
 6 -6.06142327332733  3.35257621152115  0.81708969296930
 6 -6.53288127782778  4.73546417681768  1.01553931843184
 6 -7.77021761716172  4.86846673337334  0.56053296029603
 6 -8.21439199239924  3.42130242154215  0.20469080828083
 6 -5.64465024622462  5.93990508180818  1.57419394459446
 6 -8.67362657505751  5.98871393939394  0.32729275117512
 6 -8.23444264206421  7.24386047034703  0.27604334203420
 7 -9.12110714641464  0.61161764006401 -0.43489519481948
 6 -9.91474313331333  1.75614629722972 -0.62408753295330
 6 -11.14120886378638  1.48270926132613 -1.09413416301630
 6 -11.22828134883488  0.13015689298930 -1.19761902810281
 6 -9.91245112881288 -0.41487997609761 -0.90944024692469
 6 -12.26864510661066  2.47788006890689 -1.37503803470347
 6 -12.39119916561656 -0.69851091329133 -1.79717489468947
 6 -11.99849618161816 -1.28735262046205 -3.23890199559956
 7 -7.34895114721472 -1.50844020562056 -0.12376549524953
 6 -8.37836305860586 -2.26676261576158 -0.48423622952295
 6 -7.87861552905291 -3.64530871377138 -0.50436886588659
 6 -6.45768129012901 -3.52616693219322 -0.22203469556956
 6 -6.21572635083508 -2.17795394989499  0.08877049844984
 6 -8.53240358505851 -4.91769458835884 -0.78144769176918
 6 -5.31120765846585 -4.33054904020402  0.09269776967697
 8 -5.10415177697770 -5.55291794539454  0.16445248004800
 6 -4.12087549754976 -3.25668860296030  0.52658355035504
 6 -3.60639500370037 -3.58771485608561  1.87933911361136
 8 -3.72726638123812 -3.01681491429143  2.91201491679168
 8 -2.64757610551055 -4.58544669716972  1.73923201120112
 6 -2.24280691919192 -5.05689615891589  3.15385672267227
 6  2.78419219581958 -0.58288754645465 -1.24385976087609
 6  4.13828715111511 -0.35966981638164 -0.65320784948495
 6  5.17231083848385  0.31505482998300 -1.12701260146015
 6  5.07314473107311  1.08278281458146 -2.42934002510251
 6  6.53672012961296  0.50372917981798 -0.34765145134513
 6  7.67318505740574 -0.21648353025303 -0.98544821352135
 6  8.99381846424643 -0.06388612211221 -0.15157775197520
 6  10.24883577657766 -0.74890198849885 -0.79683607800780
 6  10.13482066826683 -2.30714004890489 -1.10168182968297
 6  11.44351546864686 -0.54841573217322  0.05475567426743
 6  12.89870703970397 -0.59927644354435 -0.64775531533153
 6  14.04105979377938 -0.21943870707071  0.27422463546355
 6  15.30791613561356 -0.28989160086009 -0.43191624192419
 6  15.81297539973997 -1.62090487628763 -0.84333161296130
 6  16.28419167316731  0.49596398249825  0.45296448114811
 6  17.71382708700870  0.59539766556656 -0.15751403130313
 6  18.75355075457546  1.27635948274827  0.77710007170717
 6  20.15738341814182  1.34900064466447  0.14714431803180
 6  20.32733296219622  2.27214286228623 -1.05067088848885
 6  21.04731260536054  1.97512188158816  1.30052675427543
 1 -4.09485974447445  3.52962134383438  1.68078259925993
 1 -10.29447319901990  3.91220880478048 -0.26183048564856
 1 -10.28632789458946 -2.40603065776578 -1.12092564006401
 1 -2.46401509220922 -0.97111677537754  1.97967520612061
 1 -2.18393803180318  1.58117660626063  1.46634100060006
 1 -1.88784250755075  0.91901739073907  3.34412462586259
 1 -3.01650643684368  2.18016747334734  3.53809837733773
 1 -3.74194517571757  0.52417678537854  3.62389627412741
 1 -2.05457798469847 -1.35217113751375 -0.60182516851685
 1 -2.11212541474147  0.36749884118412 -0.80107520912091
 1 -0.13400049404940  0.51327925142514  0.93507575947595
 1 -0.23019897359736 -1.21193416881688  1.05470834673467
 1 -5.22363453115312  6.53894907000700  0.84846662886289
 1 -6.40029469976998  6.64202400120012  2.02490717991799
 1 -4.94437766656666  5.62906807820782  2.29339301800180
 1 -9.80369786868687  5.85005794189419  0.33427127162716
 1 -8.85631627202720  8.02260084958496  0.32297289058906
 1 -7.13303834043404  7.20191076027603  0.25022055145515
 1 -11.96333174597460  2.90124743004300 -2.32078837723772
 1 -13.15751096459646  1.95111074917492 -1.86709023272327
 1 -12.60176713811381  3.04631771717172 -0.53134463246325
 1 -12.21624415251525 -1.60874327252725 -1.18290849874987
 1 -13.38988499209921 -0.21672548554855 -1.93780113711371
 1 -12.89048951515151 -1.93463470267027 -3.54688768646865
 1 -12.12923309730973 -0.56613533943394 -4.09894746974698
 1 -11.07043039063906 -1.81115405940594 -3.10391950745074
 1 -8.63364426032603 -5.23190603890389 -1.90162774417442
 1 -7.85159886088609 -5.94388449664967 -0.40199442754275
 1 -9.57151931773177 -5.09051583858386 -0.22761101730173
 1 -3.35681581358136 -3.27266885138514 -0.28385503850385
 1 -1.98442953295329 -3.96635501280128  3.86504319131913
 1 -3.06695188258826 -5.63025366776678  3.54746196829683
 1 -1.22890431693169 -5.75660983808381  2.95918262116212
 1  2.55123979507951 -1.44512420232023 -1.71110518681868
 1  2.61431313151315 -0.04091117271727 -2.26273829362936
 1  4.16975619991999 -0.87134514071407  0.31875425162516
 1  4.29471040734073  1.42465356165617 -3.00888423072307
 1  5.71494479287929  2.12589697989799 -2.08292264686469
 1  5.78538386118612  0.58420875107511 -3.20670196949695
 1  6.78206122942294  1.57783401110111  0.05065256295630
 1  6.25772912091209  0.04064081518152  0.60344135123512
 1  7.54754849694970 -1.41032210391039 -1.14378850755076
 1  7.88871040204020  0.40125700220022 -2.03224337123712
 1  9.19586568376838  0.88915153165317  0.20815477797780
 1  8.85284310711071 -0.66027438283828  0.82889750835083
 1  10.35438715021502 -0.35791102480248 -1.71973580418042
 1  9.40060655705571 -2.58943598789879 -1.83491845304530
 1  11.14062714741474 -2.47059357195720 -1.60352653865387
 1  9.82008948254825 -2.88012963556356 -0.34861695239524
 1  11.40496525872587  0.57321172867287  0.41858382178218
 1  11.58671908160816 -1.14295663376338  0.87557503050305
 1  13.07515325102510 -1.61925878727873 -0.77765610051005
 1  13.00716962296230 -0.14973549454945 -1.40975933973397
 1  14.06238774197420  0.84113736923692  0.68320498099810
 1  14.11892798309831 -1.02025446274627  1.12029719941994
 1  15.44168656075608  0.26683654405441 -1.33151281078108
 1  15.90850285128513 -2.40808753465347 -0.01358895649565
 1  15.03455098689869 -2.03693188678868 -1.65195291569157
 1  16.59521758035804 -1.47536146474647 -1.59734184298430
 1  15.93486869656966  1.52942201490149  0.69966338733873
 1  16.30041174317432 -0.14525092079208  1.38524145584558
 1  18.11713090499050 -0.38868583238324 -0.58193420102010
 1  17.64085416661666  1.24183544204420 -1.17140062396240
 1  18.37128581138114  2.34151605120512  0.73834893579358
 1  18.71696797419742  0.80847445874587  1.72590894249425
 1  20.61399146584658  0.41295773157316 -0.16600885048505
 1  20.12701953525353  3.34598358325833 -0.82872314181418
 1  21.34774088798880  2.12952883078308 -1.56894814881488
 1  19.63250408360836  2.02725412771277 -2.01217164046405
 1  21.11440145544555  1.30610991479148  2.18068751035104
 1  22.18280292079208  2.16831536273627  0.86998126432643
 1  20.65396792939294  2.84444812101210  1.48537446864686

