%nproc=4
%Mem=2GB
# td=(NStates=1) CAM-B3LYP/6-31G(d,p) 

TD

0 1
12 -7.06646831613161  0.60708894959496  0.01538958755876
 6 -4.79716859795980 -1.93498560986099  0.54451008590859
 6 -4.84835414171417  2.92222654995500  1.12992644984498
 6 -9.39419400820082  3.07890028942894 -0.41323265626563
 6 -9.48711973957396 -1.73051322632263 -0.85913402840284
 7 -5.07622040364036  0.45560682118212  0.72187970837084
 6 -4.25775338063806 -0.73241386178618  0.79801170397040
 6 -2.85331629282928 -0.31914718681868  1.12995843704370
 6 -3.04465475467547  1.11867299979998  1.67025983238324
 6 -4.40924901160116  1.53995437583758  1.11701796299630
 6 -2.92495028602860  1.18045453275328  3.18324185028503
 6 -1.87903218411841 -0.50232424252425  0.03220254605461
 6 -0.49019727372737 -0.41051928332833  0.42850143304330
 6  0.43302268066807 -0.61980541264126 -0.84852650445044
 8  0.19726027572757 -1.11526293009301 -1.98216749704971
 8  1.73118014301430 -0.43088799559956 -0.42021624172417
 7 -7.11765937443744  2.64275568286829  0.41161631843184
 6 -6.09910704170417  3.39556050995099  0.90259824382438
 6 -6.52902089178918  4.75660629102910  1.06124388888889
 6 -7.84249484488449  4.81222110881088  0.53375028202820
 6 -8.16753730693069  3.43357364866487  0.21596193539354
 6 -5.63157893909391  5.85869696099610  1.54977150235024
 6 -8.75377458985899  6.00849591759176  0.41163118501850
 6 -8.33874307210721  7.19942602690269  0.12724846254625
 7 -9.08724376007601  0.69545602390239 -0.46181788708871
 6 -9.82291395039504  1.82419310191019 -0.65051017521752
 6 -11.13577832073207  1.47993898429843 -1.11830658025803
 6 -11.18177669836984  0.13992787008701 -1.30324959115912
 6 -9.93211309500950 -0.44176266436644 -0.86226552945295
 6 -12.23982222432243  2.47514979587959 -1.46464699559956
 6 -12.29195924162416 -0.78017908010801 -1.65418059525953
 6 -12.28399473147315 -1.30585447064706 -3.08204631003100
 7 -7.16429268136814 -1.38854821642164 -0.16511963066307
 6 -8.26487170947095 -2.26369230873087 -0.58167597349735
 6 -7.73509117661766 -3.59234341724172 -0.49049747874787
 6 -6.39595511751175 -3.54890920642064 -0.10259275137514
 6 -6.13323810201020 -2.11755791029103  0.10111173257326
 6 -8.48174851955195 -4.85414823372337 -0.93957350435043
 6 -5.26170270797080 -4.28851483678368  0.19797829772977
 8 -5.13426478827883 -5.42521517511751  0.25095112991299
 6 -4.14092750275027 -3.27634056815682  0.53117400940094
 6 -3.49201356555656 -3.56386247084708  2.00858203790379
 8 -3.82822647724772 -3.07541077387739  3.07127084238424
 8 -2.70923227112711 -4.63665181768177  1.84130221822182
 6 -2.42671531003100 -5.31891236053605  3.06612794979498
 6  2.77623139973997 -0.70151940964096 -1.43965934083408
 6  4.07954127652765 -0.40801465086509 -0.75765829452945
 6  5.13382699009901  0.29250257475748 -1.11668156835684
 6  5.19507692429243  1.18125266156616 -2.36138322942294
 6  6.45255171277128  0.22175098199820 -0.29418610481048
 6  7.60396813571357 -0.33534541644164 -1.04023369206921
 6  8.76486556895690 -0.21589132263226 -0.02420501470147
 6  10.25493638663866 -0.57752485078508 -0.76098249264926
 6  10.16906409260926 -2.14968430333033 -1.18590025152515
 6  11.38192931003100 -0.27839873047305  0.01095129382938
 6  12.72468963796380 -0.44738125402540 -0.66198673847385
 6  13.91861754955496 -0.13100986418642  0.17137435043504
 6  15.31110645464546 -0.14810742244224 -0.50501355165517
 6  15.65111921412141 -1.60984377017702 -0.85981326112611
 6  16.45160841484148  0.41291567766777  0.58511769646965
 6  17.73912961726173  0.68204633043304 -0.12126040594059
 6  18.82615801530153  1.16961880868087  0.79659202090209
 6  20.18960664046405  1.31248699329933  0.17583718731873
 6  20.26162639153915  2.49731537953795 -1.01722754415442
 6  21.25039291339134  1.74282865226523  1.26284298589859
 1 -4.07269752825283  3.47187556925692  1.66717123812381
 1 -10.12617636933693  4.06905448934894 -0.52469677227723
 1 -10.37567682948295 -2.50266032073207 -1.01936548404840
 1 -2.41021971267127 -0.98595825952595  1.92518975757576
 1 -2.25427506550655  1.71000948954896  1.14810917741774
 1 -1.86475019831983  0.91130661966197  3.56171638503850
 1 -3.30061484768477  2.10550000660066  3.75277984548455
 1 -3.56101708290829  0.45161952965297  3.56214009850985
 1 -1.95887841474147 -1.40541646204621 -0.45560054605461
 1 -2.18120232243224  0.16927901920192 -0.83121822342234
 1 -0.23292038603860  0.38714663816382  0.82815506740674
 1 -0.10610656435644 -1.28163113851385  1.19661253715372
 1 -4.83385555325533  6.27341251635164  0.84027580978098
 1 -6.21942661296130  6.89978977777778  1.65516020522052
 1 -4.93805703450345  5.35630080148015  2.28667234593459
 1 -9.73632113101310  5.89859279537954  0.52160000450045
 1 -9.28652929332933  7.92800138963896  0.03571416471647
 1 -7.31604664126413  7.61110167936794 -0.09497396799680
 1 -11.95370078287829  3.40799810511051 -1.98049434783478
 1 -13.07566277977798  2.10693633173317 -2.02819634333433
 1 -12.61389835123513  2.81557464286429 -0.32787428542854
 1 -12.43464599269927 -1.59969236743674 -0.87451765966597
 1 -13.18994499809981 -0.08909272227223 -1.51421877887789
 1 -12.98015848204820 -2.05032627182718 -3.21023402110211
 1 -12.32737291129113 -0.42962168806881 -3.73474104910491
 1 -11.31211455905591 -1.81086403040304 -3.14088320382038
 1 -9.01236213211321 -4.69648249654965 -1.96816439783978
 1 -7.73298699969997 -5.61903201140114 -0.95484971307131
 1 -9.36475864166417 -4.92111889888989 -0.34548280448045
 1 -3.38319845184518 -3.49718130263026 -0.26414306730673
 1 -1.71441253125313 -4.82202057935794  3.55184187118712
 1 -3.09952513991399 -5.63039368176818  3.67270449254925
 1 -1.96336776327633 -6.32017619471947  2.76757346024602
 1  2.47816248734873 -1.79293898379838 -1.69435351165116
 1  2.67062876307631 -0.07850493209321 -2.53802582238224
 1  4.18244746904691 -0.90520852705270  0.16034841104110
 1  4.37832876917692  1.24482557885789 -3.16231957425743
 1  5.53930722912291  2.37575196539654 -1.93792814741474
 1  6.13582890569057  0.71274160436044 -3.01589288858886
 1  6.63503652695270  1.19236546424642  0.08620611831183
 1  6.15174852285228 -0.33620686958696  0.55399640674067
 1  7.43374711681168 -1.39284035573557 -1.47460158885889
 1  7.89742127312731  0.23993086958696 -1.91194134103410
 1  8.70809690689069  0.78428104460446  0.20203416591659
 1  8.67298512131213 -0.82990134553455  0.86584120272027
 1  10.22231394289429  0.15144991129113 -1.72721655225523
 1  9.15971246764676 -2.25146219051905 -1.82740770197020
 1  10.95804888958896 -2.27564407700770 -2.07343352935294
 1  10.46086355995600 -2.69228085068507 -0.30788287898790
 1  11.31396615881588  0.73418782628263  0.36251821522152
 1  11.22286269596960 -0.81640397849785  0.96902437543754
 1  12.67423315901590 -1.56197305870587 -0.97909624452445
 1  12.61559046504651  0.07754723372337 -1.61119948374837
 1  13.75628713191319  0.91394464996500  0.69076573707371
 1  13.93360945124512 -0.73153559085909  1.11592676237624
 1  15.41634402650265  0.46274613501350 -1.36584624412441
 1  15.16151815281528 -2.17290401630163  0.06040844324432
 1  14.79399693149315 -1.85561375497550 -1.69329705010501
 1  16.61267932653266 -1.81390531913191 -1.27295940474047
 1  15.85962117181718  1.36352542524252  0.95800922192219
 1  16.59617131913192 -0.35763215891589  1.48737166886689
 1  18.14764395629563 -0.41726869066907 -0.36797280488049
 1  17.29325940714072  1.39204046254625 -0.95052853675368
 1  18.46938562136214  2.18046994659466  1.38020312121212
 1  18.90053633103310  0.19843345464547  1.57080343194319
 1  20.52349241594159  0.35193162896290 -0.35699794939494
 1  19.77331416471647  3.37815680058006 -0.64490475997600
 1  21.22806892079208  2.81239711761176 -1.21830308430843
 1  19.89190002320232  1.93471487378738 -2.03442386568657
 1  21.30019003430343  1.10100940474047  2.08448789038904
 1  22.18220286078608  1.75483401460146  0.90217448364836
 1  21.07514004660466  2.88393206940694  1.54336026722672

