%nproc=4
%Mem=2GB
# td=(NStates=1) CAM-B3LYP/6-31G(d,p) 

TD

0 1
12 -7.18009967926793  0.63657189788979  0.05000304890489
 6 -4.82008088918892 -1.95845795709571  0.47233286818682
 6 -4.83594290059006  2.85429975727573  1.13493695089509
 6 -9.43452804160416  3.12405480488049 -0.33927526052605
 6 -9.44254528212821 -1.72535271027103 -0.91212932793279
 7 -5.05523830543054  0.43824508500850  0.69553707410741
 6 -4.24918252355236 -0.74424504490449  0.84243614641464
 6 -2.89379034023402 -0.29415468756876  1.28674411561156
 6 -3.03567385658566  1.08766989948995  1.75804861126113
 6 -4.32338042474247  1.54330471087109  1.12623888508851
 6 -3.09704749574957  1.21007749504951  3.29556308240824
 6 -1.95041932283228 -0.54916892699270  0.14989431523152
 6 -0.40092834683468 -0.30976920832083  0.52635121802180
 6  0.58313769216922 -0.55085851795180 -0.62820447224722
 8  0.21710225992599 -0.79565096889689 -1.77262654295430
 8  1.77639466446645 -0.47615252205221 -0.16198041814181
 7 -7.08789639813981  2.63503491079108  0.35698085488549
 6 -6.06853398439844  3.32480343424342  0.84308229222922
 6 -6.54517250695070  4.66561719211921  0.98508627312731
 6 -7.80693128852885  4.77520740744074  0.44757166416642
 6 -8.15553610681068  3.38601889318932  0.12900323952395
 6 -5.77545332653265  5.72471356265627  1.56953347854785
 6 -8.63737294969497  5.88277334533453  0.22966298819882
 6 -8.28094729252925  7.13799988428843 -0.05894015631563
 7 -9.11781681738174  0.70129660796080 -0.52197390269027
 6 -9.84791645064506  1.76826750935094 -0.61437656185619
 6 -11.24245898879888  1.42801379177918 -1.06719146874687
 6 -11.33284180488049  0.04574845214521 -1.32828209440944
 6 -9.96010589428943 -0.40699918801880 -0.91546084898490
 6 -12.38162640474047  2.45172745364536 -1.28556908780878
 6 -12.44145419111911 -0.81746280848085 -1.76543172037204
 6 -12.39475580758076 -1.01339522472247 -3.23283138853885
 7 -7.23110936303630 -1.36474583618362 -0.32577569626963
 6 -8.24284950725072 -2.33536947644764 -0.57024483038304
 6 -7.84806247374737 -3.58415259815982 -0.54541297029703
 6 -6.41293681568157 -3.48072238773877 -0.12251474357436
 6 -6.14612939113911 -2.11442759725973 -0.00935931453145
 6 -8.51594193889389 -4.84891771067107 -1.04202374937494
 6 -5.31337787548755 -4.37259324462446  0.22352085198520
 8 -5.15348671047105 -5.57883053665367  0.28540457525753
 6 -4.08196160616062 -3.34383731783178  0.55364625662566
 6 -3.44058842304230 -3.67723380798080  1.96461764146415
 8 -3.74521817641764 -3.20336356915692  3.07789150445045
 8 -2.61093244114411 -4.73477162966297  1.74394248224823
 6 -2.13154579307931 -5.07371784108411  3.01246258325833
 6  2.77280105670567 -0.66514577227723 -1.13232860776078
 6  4.18379170157016 -0.33541739113911 -0.48984151285129
 6  5.11099470687069  0.47995131963196 -0.96873677387739
 6  5.11401881848185  1.20957549384939 -2.19722681378138
 6  6.39637609520952  0.49056786368637 -0.22981966816682
 6  7.60551829072907 -0.13974585648565 -0.97909757845785
 6  8.92925200760076 -0.08670840434043 -0.22310490469047
 6  10.16235712871287 -0.54371146944694 -1.03116951135113
 6  10.08402558875888 -2.00834016891689 -1.27334899639964
 6  11.44541565866587 -0.25576646724672 -0.11806160746075
 6  12.84936210521052 -0.61573808970897 -0.72314285408541
 6  13.97892358015802 -0.25679244244424  0.23932114511451
 6  15.40520586458646 -0.25307791949195 -0.46654970527053
 6  15.61433553575358 -1.69679246504650 -0.85122240204020
 6  16.41567482148215  0.32125651175118  0.54534371907191
 6  17.80495619991999  0.47603572937294 -0.19745802570257
 6  18.82434783428343  1.21323317011701  0.67970033173317
 6  20.27878555835584  1.33267901250125  0.17398700230023
 6  20.29717994689469  2.22559820782078 -1.03781960336034
 6  21.22029990409041  1.85281965136514  1.22787948954895
 1 -4.33178343684368  3.48282666436644  1.59255377637764
 1 -10.05714946664667  3.98375595949595 -0.58563286588659
 1 -10.21438069986999 -2.48612866756676 -1.13021656915692
 1 -2.74190288098810 -1.03065272897290  2.14496173477348
 1 -2.05140477847785  1.52673116171617  1.24450881738174
 1 -2.22124584788479  0.84408989798980  3.73318353175318
 1 -2.99875466166617  2.31240069666967  3.58587315481548
 1 -4.06640762196220  0.77392175987599  3.65954983948395
 1 -2.10343287018702 -1.56589250965097 -0.12498748474847
 1 -2.26022022422242  0.35776786808681 -0.62895799739974
 1 -0.34108120212021  0.83166108960896  0.85614786668667
 1 -0.30338629232923 -0.97751072647265  1.49837271317132
 1 -5.03234540224022  6.31155633073307  0.83966574877488
 1 -6.32437710801080  6.44157395619562  1.90931562076208
 1 -4.91877510631063  5.42971814321432  2.28602228092809
 1 -9.66579407830783  5.57433036913691  0.38901674617462
 1 -8.83928456885688  7.96573516301630 -0.09035844254425
 1 -7.31183622022202  7.34944551375138 -0.60642511311131
 1 -12.10701611441144  3.03326063136314 -2.25641193959396
 1 -13.45626083958396  1.87040267836784 -1.49522304600460
 1 -12.44162112351235  3.25470855625563 -0.47414891289129
 1 -12.58062059015902 -1.65090748894890 -0.95655586348635
 1 -13.42655865946595 -0.30072388538854 -1.33175053205321
 1 -13.13836430263026 -1.61278251745175 -3.65189818751875
 1 -12.30412058605861 -0.05556428232823 -3.77690526552655
 1 -11.48630197779778 -1.49263220722072 -3.48805792129213
 1 -8.80988188408841 -4.69422227052705 -2.09147672907291
 1 -7.84054775577558 -5.59129923812381 -0.88193242134213
 1 -9.39110127592759 -5.10790757775778 -0.20561881808181
 1 -3.49205933793379 -3.54453603810381 -0.20936758975898
 1 -1.46561765176518 -4.44486286358636  3.57152383938394
 1 -2.95051023842384 -5.50682132453245  3.53864108620862
 1 -1.49552097859786 -5.99021319841984  2.77125382828283
 1  2.54330900200020 -1.64300399029903 -1.69828390469047
 1  2.53925562576258  0.05178809720972 -1.94966698649865
 1  4.36977620192019 -0.91413942014201  0.32880525672567
 1  4.24853578987899  1.33451454775478 -2.53076641894189
 1  5.47809110751075  2.35764015421542 -2.19111346594659
 1  5.80543586638664  0.88038836903690 -2.96497779707971
 1  6.63283630693069  1.59034526222622 -0.02083458575858
 1  6.35244859285929 -0.07133038193819  0.68888989608961
 1  7.19433317541754 -1.11339241094109 -1.11019514821482
 1  7.74441597259726  0.28522539903990 -1.95055520242024
 1  8.99569566676668  1.02688530503050  0.06599056155616
 1  8.77934575737574 -0.44437279267927  0.83372799139914
 1  10.19447115861586  0.05059982628263 -2.03209704030403
 1  9.15102159855986 -2.33611065536554 -1.78033299449945
 1  10.94165725042504 -2.40887740034003 -1.56895308130813
 1  9.90529800340034 -2.40284190679068 -0.33774586528653
 1  11.35788055025503  0.67425183268327  0.12516447984798
 1  11.23254366406641 -0.67879021712171  0.83173064606461
 1  12.98298403410341 -1.67537439883988 -0.96211454635464
 1  12.98369727572757 -0.19923044404440 -1.68530689448945
 1  13.83956545974597  0.93631688718872  0.59498615911591
 1  13.88547463776378 -0.91797423472347  0.98891406110611
 1  15.43693608570857  0.48220808120812 -1.40184984448445
 1  15.40473247424743 -2.31814854075408 -0.17381497909791
 1  14.95034256605661 -1.91701989558956 -1.72214993539354
 1  16.57838589718972 -1.78035196379638 -1.19649175797580
 1  16.04138934863486  1.27325639833983  0.77179060006001
 1  16.47375907790779 -0.32079847554755  1.47763069476948
 1  18.19905909780978 -0.63325028882888 -0.44769077667767
 1  17.79714979617962  1.14244550305031 -1.06264974887489
 1  18.53173185598560  2.11821372097210  1.06783188408841
 1  18.73977025442544  0.57234084538454  1.64536088768877
 1  20.56208627532753  0.32386882268227 -0.06965921552155
 1  19.75586241954196  3.25230421532153 -0.91149141864186
 1  21.46015212911291  2.48278415631563 -1.31987324132413
 1  19.90905173837384  1.73304470677068 -1.86358678197820
 1  21.17066708200820  1.23126243004300  2.14525396699670
 1  22.27383202370237  1.75373390459046  0.85486975317532
 1  21.01741427402740  2.77712138833883  1.65977190839084

