%nproc=4
%Mem=2GB
# td=(NStates=1) CAM-B3LYP/6-31G(d,p) 

TD

0 1
12 -7.12375404470447  0.59946818751875  0.14797284588459
 6 -4.83536241734173 -1.87584969626963  0.45311094599460
 6 -4.78251755805581  2.85200952825283  1.07482093929393
 6 -9.47555214401440  3.05884828422842 -0.29421075407541
 6 -9.48796982458246 -1.71839201420142 -0.84960307530753
 7 -5.14603738533853  0.49599085958596  0.71546906730673
 6 -4.31336894219422 -0.64190481088109  0.79304120692069
 6 -2.95354631583158 -0.37857312941294  1.22854829602960
 6 -3.02187247644765  1.12730386288629  1.65797860426043
 6 -4.48009609630963  1.47830821122112  1.22852911411141
 6 -3.01707949894990  1.42218870617062  3.23939746584658
 6 -1.88410269116912 -0.60549455955596  0.02069139493949
 6 -0.53470172417242 -0.59087731913191  0.60039862276228
 6  0.41536091449145 -0.67029046114611 -0.55538719051905
 8  0.14677522722272 -1.03977538133813 -1.69088836913691
 8  1.79991701670167 -0.27476238303830 -0.18303252335234
 7 -7.10210781928193  2.61388279557956  0.18126328312831
 6 -6.10455758675868  3.36217717161716  0.75902388638864
 6 -6.53733172287229  4.72081271167117  0.91535930043004
 6 -7.75816641204120  4.78694858155816  0.41806871387139
 6 -8.19125967916792  3.45198548984898  0.08006834603460
 6 -5.64735051625162  5.85995708700870  1.50730725592559
 6 -8.60356956935694  5.95536060406041  0.35933595549555
 6 -8.25458465626563  7.21637772207221  0.00128586628663
 7 -9.12634767046705  0.71953843214321 -0.52107381268127
 6 -9.87411907090709  1.82181286388639 -0.70080520472047
 6 -11.21378612151215  1.45450644104410 -1.16686143574357
 6 -11.22577109780978  0.05880975827583 -1.36617588378838
 6 -9.95079496319632 -0.35264375247525 -0.98807811071107
 6 -12.27353559565957  2.41738401930193 -1.31777230813081
 6 -12.29366941264126 -0.84565562776278 -1.68797397459746
 6 -12.28149448144815 -1.33426731193119 -3.13481158655866
 7 -7.25589184128413 -1.37559692129213 -0.15098821752175
 6 -8.24882010431043 -2.21635757525753 -0.54758256415642
 6 -7.79645731323132 -3.59796397929793 -0.52785121412141
 6 -6.50322584458446 -3.58859317481748 -0.05391788388839
 6 -6.20634541274127 -2.21220737523752  0.15738736013601
 6 -8.69939028372837 -4.71608442734273 -0.91046059305931
 6 -5.26140267796780 -4.32691867716772  0.15925442534253
 8 -5.04144550635063 -5.53322597619762  0.07159319411941
 6 -4.07804121412141 -3.27774070817082  0.42063295529553
 6 -3.45674003820382 -3.68440452505251  1.83122430213021
 8 -3.72060571517152 -3.09502273507351  2.91974568986899
 8 -2.73147449534954 -4.84222237473747  1.72173026102610
 6 -2.08302094059406 -5.31451192049205  2.91319265626563
 6  2.85696947354735 -0.65735499319932 -1.04507988288829
 6  4.16844016641664 -0.32375622502250 -0.35148767746775
 6  5.04116772417242  0.44376770127013 -0.81900180038004
 6  5.14054147074707  1.32782731903190 -1.99716680778078
 6  6.44512096969697  0.45425423232323 -0.11900858705871
 6  7.58911665056506 -0.03705558745875 -0.98942861156116
 6  8.91770085248525 -0.04062379587959 -0.23302589678968
 6  10.16252714571457 -0.47907500580058 -0.89370576497650
 6  10.13684087028703 -1.94630396529653 -1.26161782328233
 6  11.45221633873387 -0.21335222582258  0.04980517921792
 6  12.70678784778478 -0.41514803070307 -0.72342288208821
 6  13.92217790559056 -0.18754551775178  0.13454066706671
 6  15.27512285628563 -0.30687329902990 -0.56414946524652
 6  15.64622872507251 -1.82987577337734 -0.90875815561556
 6  16.41141439543954  0.22403678977898  0.45052423712371
 6  17.80214591889189  0.51683980978098 -0.23157143704370
 6  18.76141154065407  1.27765961276128  0.74198656035604
 6  20.23443112291229  1.31771751635164  0.11697130073007
 6  20.38614884378438  2.23779942794279 -1.12041786318632
 6  21.32787066116612  1.69034340374037  1.18862556415642
 1 -4.12034229272927  3.74857323902390  1.28012253325333
 1 -10.16742049374938  3.68233581748175 -0.21186548914891
 1 -10.17712697449745 -2.43068312301230 -1.27862140964096
 1 -2.63184187488749 -1.08261792549255  2.10962820142014
 1 -2.32345198319832  1.82622111071107  1.19162352885289
 1 -2.01268499179918  1.17031252025203  3.67861807520752
 1 -3.25674046024603  2.46209566616662  3.46870143764377
 1 -3.81098207940794  0.75458982668267  3.81239512401240
 1 -2.14664719161916 -1.50754667506751 -0.45447043304330
 1 -2.06370057225723  0.17894998629863 -0.57615271687169
 1 -0.19531662566257  0.40938886238624  0.88061031293129
 1 -0.32866882058206 -1.30949392479248  1.36333920982098
 1 -4.88333050075008  6.22469764486449  0.92210399259926
 1 -6.33412808310831  6.55131493029303  1.74352904210421
 1 -5.23879710851085  5.36913208460846  2.39436311501150
 1 -9.59475697459746  5.79292222832283  0.67852569706971
 1 -9.02512315271527  8.03453204270427 -0.18645805250525
 1 -7.25419045564557  7.18460903010301 -0.29435390599060
 1 -12.01071648444844  2.90744805010501 -2.23478977737774
 1 -13.25459067256726  1.86417205530553 -1.58673219691969
 1 -12.44721168256826  2.97320040544054 -0.44014551255126
 1 -12.18636116421642 -1.73351574977498 -0.96688689658966
 1 -13.42895889948995 -0.44813862686269 -1.46448380538054
 1 -13.03616408260826 -2.19720095929593 -3.27362035973597
 1 -12.37420759475948 -0.53495222112211 -3.79565714071407
 1 -11.38054140174017 -1.87739068306831 -3.21341045654565
 1 -8.91807270317032 -4.88583143144314 -2.00793837523752
 1 -8.26366006700670 -5.77443755195520 -0.65037926602660
 1 -9.58060022582258 -4.57640442744274 -0.40005826202620
 1 -3.53863399539954 -3.09414099859986 -0.25420207320732
 1 -1.41550264026403 -4.53796217351735  3.38119480648065
 1 -2.78039322672267 -5.68113875627563  3.74990221232123
 1 -1.48843026952695 -6.04454863196320  2.73134983788379
 1  2.99595426652665 -1.62157184708471 -1.21095517181718
 1  2.97418911911191 -0.08120520212021 -2.00507252705271
 1  4.24596382068207 -0.95882388858886  0.50016239243924
 1  3.97921885818582  1.44577567386739 -2.36282962526253
 1  5.67888118651865  2.24515890609061 -1.85626998159816
 1  5.71727705050505  0.86964729492949 -2.73670496979698
 1  6.71171419471947  1.39139536723672  0.43871136883688
 1  6.36586993499350 -0.10202345124512  0.85069607670767
 1  7.35937968006801 -1.05848692039204 -1.30002413111311
 1  7.56471800280028  0.89776665316532 -1.85163531043104
 1  8.87879397659766  1.05162777927793  0.27551151365136
 1  8.80589841264126 -0.85577393279328  0.47849246784678
 1  10.05117682918292  0.25881064736474 -1.66435026562656
 1  9.24762125852585 -2.31133817811781 -1.98894385558556
 1  11.07478056275628 -2.20302681528153 -1.76557274327433
 1  10.04606207980798 -2.69822144474447 -0.32889498019802
 1  11.41903666586659  0.84679908740874  0.49117108050805
 1  11.53242365206521 -0.81497383548355  0.86472394539454
 1  12.83142887858786 -1.57781464286429 -1.02310064496450
 1  12.63915282128213  0.15615509450945 -1.67120548434843
 1  13.73125462866287  0.84908816431643  0.24996165666567
 1  13.87096318661866 -0.46724916221622  1.17536270597060
 1  15.38151054315432  0.36823668406841 -1.32752241174117
 1  15.33856585758576 -2.34314104000400  0.20517291969197
 1  15.01285881768177 -2.14633282688269 -1.70708842924292
 1  16.83999205780578 -2.01541547014702 -1.16814892369237
 1  16.21068627832783  1.01609068176818  0.99576299729973
 1  16.51203290529053 -0.18909530523052  1.40379331103110
 1  18.46444563646365 -0.47627459125913 -0.37604361196120
 1  17.72689277047705  0.91173243174317 -1.06947043094309
 1  18.50289897269727  2.32710461006101  0.76592169306931
 1  18.81416769416942  0.78657226852685  1.79470582218222
 1  20.55391545824582  0.23338977477748 -0.25968821842184
 1  19.81117795109511  3.13459244414441 -0.92225249474947
 1  21.36340245414542  2.47657353525353 -1.31347260126013
 1  19.60719155235523  1.70225162746275 -1.86524694799480
 1  21.32239225452545  1.00454975877588  2.24869431103110
 1  22.44841948244824  1.77448597979798  0.66670093629363
 1  21.15200773337334  2.81311498769877  1.46868279947995

