%nproc=4
%Mem=2GB
# td=(NStates=1) CAM-B3LYP/6-31G(d,p) 

TD

0 1
12 -7.10271194049405  0.65658389908991  0.09393744234423
 6 -4.82118099919992 -1.90611272257226  0.43110874577458
 6 -4.80853015931593  2.70413474077408  1.08349180638064
 6 -9.39369395819582  3.02687508690869 -0.33043437643764
 6 -9.51503253085309 -1.72522269726973 -0.77198531353135
 7 -5.00730351195120  0.49553081358136  0.64727224762476
 6 -4.33650125542554 -0.61691231163116  0.75309721252125
 6 -2.82232319351935 -0.35849112121212  1.11521696289629
 6 -2.99639992919292  1.04853598609861  1.61890469686969
 6 -4.29764785148515  1.52904328472847  1.05421168236824
 6 -2.82494028502850  1.27388387568757  3.03862738883888
 6 -1.88305258615862 -0.61627563766377 -0.01918259245925
 6 -0.43150140414041 -0.37540577197720  0.40469905280528
 6  0.57238661706171 -0.70138357045705 -0.74753640544054
 8  0.28559910961096 -0.91232263606361 -1.94810409070907
 8  1.83072009700970 -0.45013992079208 -0.25054927502750
 7 -7.11019862836284  2.61376278357836  0.33556871367137
 6 -6.03337046804680  3.35885683958396  0.77187517151715
 6 -6.45447343704370  4.75704633503350  0.90726849134913
 6 -7.74922551795179  4.80762064876488  0.44758166516652
 6 -8.13900445364536  3.43226351765177  0.16343668286829
 6 -5.56668244944494  5.81933302460246  1.39658618381838
 6 -8.56222543494350  5.99711477947795  0.24065408730873
 6 -8.17065626342634  7.29030511481148 -0.06523078537854
 7 -9.13409844554455  0.68159463776378 -0.45642734803480
 6 -9.97238889788979  1.82042272487249 -0.54745987018702
 6 -11.33572831573157  1.41316230663066 -0.97386213581358
 6 -11.28665718641864  0.04706858415842 -1.09710897709771
 6 -9.94544442814281 -0.37432592069207 -0.78580788368837
 6 -12.37091533363336  2.34617689858986 -1.08051858275828
 6 -12.49926997269727 -0.73973503570357 -1.49537471467147
 6 -12.36117244924493 -1.09765365056506 -3.00592869826983
 7 -7.19584583668367 -1.37621698329833 -0.24029714841484
 6 -8.28434365666567 -2.18966490599060 -0.48993679957996
 6 -7.93578124562456 -3.57365154805481 -0.43283171217122
 6 -6.48847436943694 -3.60979529502950 -0.17278977107711
 6 -6.12084686288629 -2.20568672317232  0.05868749014901
 6 -8.65579592429243 -4.85529834873487 -0.82107165416542
 6 -5.30880741844184 -4.37580356565657  0.22206070597060
 8 -5.26717807960796 -5.58186083968397  0.22841887668767
 6 -4.15285869586959 -3.29512244634463  0.48556944894489
 6 -3.43522788698870 -3.72355844044404  1.84031521122112
 8 -3.71676533113311 -3.20545377817782  2.95581929722972
 8 -2.51300264816482 -4.65224337683768  1.63152124012401
 6 -1.94342698119812 -5.11424189348935  2.79580091709171
 6  2.83349712631263 -0.58353761146115 -1.22790816571657
 6  4.08120144254425 -0.45224907430743 -0.61101363006301
 6  5.17808141554155  0.33009633413341 -1.04354425462546
 6  5.10613803040304  1.18279281558156 -2.24165125622562
 6  6.46041249884988  0.39449825672567 -0.22969965616562
 6  7.63155089398940 -0.04073595549555 -1.15332500120012
 6  8.81429051145115 -0.07371710521052 -0.21017361156116
 6  10.11930282328233 -0.58797589588959 -0.92877927232723
 6  10.06954414061406 -2.03009234413441 -1.31983364486449
 6  11.39829094619462 -0.30090098069807  0.01016121482148
 6  12.65982315131513 -0.54458097399740 -0.78728926872687
 6  13.94338002580258 -0.22725948914892  0.22119933293329
 6  15.33048839283928 -0.19641225292529 -0.50251330163016
 6  15.72789689188919 -1.70714350015002 -0.66984426422642
 6  16.38887214121412  0.37626201230123  0.59592877757776
 6  17.75861156545655  0.52188031383138 -0.00567884778478
 6  18.79899529902990  1.15460730753075  0.85676803850385
 6  20.19748742854285  1.35199094369437  0.27102670627063
 6  20.12027225612561  2.25044069206921 -0.98118393979398
 6  21.04226210031003  1.97159152855286  1.41107780938094
 1 -4.07624788328833  3.51184956665667  1.52376689768977
 1 -10.19135288698870  3.85737332123212 -0.47573187578758
 1 -10.19576883868387 -2.61090114481448 -0.96319986748675
 1 -2.62615130583058 -1.03531319501950  1.99998723732373
 1 -2.24820445844584  1.78656714531453  1.01161552805281
 1 -1.87898162146215  0.92398788778878  3.56237645104510
 1 -3.14870965716572  2.30747020362036  3.42028659615962
 1 -3.61697267846785  0.70605497319732  3.38987287178718
 1 -1.73554608150815 -1.56791271167117 -0.33415840184018
 1 -2.18271247344734 -0.11729963866387 -0.82422752435243
 1 -0.17441453545355  0.66280420392039  0.65797804970497
 1 -0.25511146484649 -1.08544151955196  1.39096197209721
 1 -4.48291045874587  6.17330250535054  0.84585636783678
 1 -6.14542921322132  6.74770456925692  1.46122081128113
 1 -5.07279050785078  5.55234040544054  2.61709538823882
 1 -9.61195869476948  5.83459639573957  0.32548039253925
 1 -9.01605224562456  8.00117870737074 -0.05359476617662
 1 -7.06125116171617  7.46423699289929 -0.45243971457146
 1 -12.35856126892689  3.21047835313531 -1.77009330773077
 1 -13.28198341184118  1.79368500660066 -1.37095061876188
 1 -12.70709767116712  2.90287337273727 -0.26813831183118
 1 -12.53735626372637 -1.78303070127013 -0.88852906080608
 1 -13.26597260086009 -0.22070588358836 -1.39544690169017
 1 -13.04976544274427 -1.72829406860686 -3.24967796549655
 1 -12.32436261026103 -0.24455318121812 -3.69772734773477
 1 -11.51389473707371 -1.66191913591359 -3.16500561606161
 1 -9.23461435733573 -4.76745959425943 -1.78416599799980
 1 -7.98492219321932 -5.70462057025703 -0.90500472857286
 1 -9.52543470927093 -5.09975676267627 -0.16798505470547
 1 -3.51640177217722 -3.33774535903590 -0.36634328732873
 1 -1.30973206320632 -4.38944732203220  3.38032471947195
 1 -2.82843803120312 -5.45020566296630  3.54979220132013
 1 -1.45488691519152 -6.09548372547255  2.62989969286929
 1  2.61366603770377 -1.68942863276328 -1.87022109840984
 1  2.79447114731473  0.07606052445245 -2.11072309210921
 1  4.05106433073307 -1.08510651685169  0.41227360356036
 1  4.10556149244925  1.36331742804280 -2.61978532083208
 1  5.60262356075608  2.20268465866587 -2.01467582218222
 1  5.89947527032703  0.74772510271027 -3.04271557085709
 1  6.48044106740674  1.35852207990799  0.05459295699570
 1  6.03445679367937 -0.31934518341834  0.56175718281828
 1  7.47257099919992 -1.02944401610161 -1.47168129682968
 1  7.71010254125413  0.75032190869087 -2.04234438133813
 1  8.99936603380338  0.94502711921192  0.17120108260826
 1  8.65896371917192 -0.73470182558256  0.86630124872487
 1  10.09465117661766 -0.10710594429443 -1.84579841044104
 1  9.16862335873587 -2.26375341964196 -1.80438539973997
 1  10.96286937163716 -2.31474798739874 -1.85623180918092
 1  10.26717419101910 -2.67868949154916 -0.38639072977298
 1  11.19499426162616  0.66808121562156  0.51541350475047
 1  11.52667307700770 -1.21142348044805  0.85326279927993
 1  12.73293902960296 -1.49275613701370 -1.05347368226823
 1  12.59370827682768  0.06033551255126 -1.52349071287129
 1  13.65308681188119  0.62979623512351  0.65634229472947
 1  13.73546963726373 -0.62903534083408  1.16783195289529
 1  15.23868626072607  0.36537639803980 -1.47235689518952
 1  15.58284028502850 -2.29026575247525  0.21840424282428
 1  15.05422295409541 -2.19124731833183 -1.53613133353335
 1  16.76685474407441 -1.96323025162516 -1.05156726552655
 1  15.85504071377138  1.43587265996600  0.93833725472547
 1  16.41249295129513 -0.11309770547055  1.45596852855286
 1  18.21207039893990 -0.44427139093909 -0.15142114971497
 1  17.80692077327733  1.01774303280328 -0.90065354925493
 1  18.27986666946695  2.02672457205721  1.28223332423242
 1  18.84451072847284  0.79423303460346  2.02758911051105
 1  20.57057712441244  0.36175261106111  0.24767251765177
 1  19.62751958525853  3.17624660956096 -0.66938720822082
 1  21.22620873477348  2.62060793869387 -1.52319357335734
 1  19.57461829502950  1.83707510981098 -1.92823324662466
 1  21.25091510681068  1.37418672247225  2.27767720932093
 1  22.00193483398340  2.38659719091909  1.02258652485249
 1  20.66246877947795  3.11132480868087  1.61757768896890

