%nproc=4
%Mem=2GB
# td=(NStates=1) CAM-B3LYP/6-31G(d,p) 

TD

0 1
12 -7.16272794209421  0.71174941564156  0.08661671027103
 6 -4.81792067316732 -1.94222633393339  0.42383801870187
 6 -4.84898420472047  2.80054438173817  1.21533499069907
 6 -9.44500908970897  3.09381178057806 -0.29336066906691
 6 -9.58550957855786 -1.80017019201920 -0.73197131213121
 7 -5.15371815341534  0.36126738723872  0.67217473787379
 6 -4.34606221152115 -0.66804742514251  0.61668357115712
 6 -2.96232719391939 -0.33998927102710  1.11384682588259
 6 -2.94775506470647  1.14045517801780  1.62388519491949
 6 -4.33926201290129  1.54263464386439  1.19833609480948
 6 -2.85641343234323  1.24584107140714  3.14374790089009
 6 -1.90104438533853 -0.60574458455846  0.01561088688869
 6 -0.47406566056606 -0.40387861926193  0.37925650855086
 6  0.46931631003100 -0.49631306340634 -0.63934558635864
 8  0.21516206590659 -0.78765016881688 -1.91796107640764
 8  1.67610463546355 -0.38295320212021 -0.25116933703370
 7 -7.16979458795880  2.60145155245525  0.38675383218322
 6 -6.05517264826483  3.39836078997900  0.81048903290329
 6 -6.37446543624362  4.77183781418142  0.75300306480648
 6 -7.74082467786779  4.78558844554455  0.46393330033003
 6 -8.17932848604860  3.50004029532953  0.19718005720572
 6 -5.37928370957096  5.86328742004200  1.31253777897790
 6 -8.60412962536254  5.97726279427943  0.35304532643264
 6 -8.14852405020502  7.20774685898590  0.25820155785579
 7 -9.12472750845084  0.59973645194519 -0.37230893619362
 6 -9.90233189218922  1.74085476807681 -0.54196932113211
 6 -11.16602134503450  1.35434642504250 -1.02342709230923
 6 -11.27494601530153  0.01803568086809 -1.22980224642464
 6 -9.93513339703970 -0.38969745784578 -0.90417972087209
 6 -12.37138538063806  2.43574585548555 -1.20250078097810
 6 -12.40611065676568 -0.78453951615161 -1.69237441464146
 6 -12.28479481148115 -1.20187407260726 -3.12490059545955
 7 -7.16466271837184 -1.40546990859086 -0.24462758145815
 6 -8.28369359165917 -2.18225416491649 -0.50583838973897
 6 -7.96363403090309 -3.60474465736574 -0.40706913591359
 6 -6.58784430643064 -3.55264958045805 -0.07918041014101
 6 -6.16118089628963 -2.15559171367137  0.10177179857986
 6 -8.71896224092409 -4.82521534043404 -0.59836938393839
 6 -5.35258179587959 -4.35507149244925  0.21141964186419
 8 -5.14592595439544 -5.54397705130513  0.30389642444244
 6 -4.28108151815182 -3.34101703580358  0.51914280628063
 6 -3.48382274647465 -3.68995508010801  1.80474165386539
 8 -3.66298995359536 -3.10976420922092  2.89403311861186
 8 -2.68350969886989 -4.75397354985498  1.61868995699570
 6 -1.98338097659766 -5.16022649194919  2.84107544454445
 6  2.78160193679368 -0.63555281298130 -1.25528090299030
 6  4.09585290769077 -0.30742459185919 -0.64315684438444
 6  5.18148175557556  0.32651597609761 -1.10383028322832
 6  5.12460987758776  1.10621515781578 -2.46902399349935
 6  6.46606306390639  0.41710051695170 -0.31115780198020
 6  7.61275901480148 -0.30506238813881 -1.00190985968597
 6  8.92981206360636 -0.29320905440544 -0.23706630083008
 6  10.15809670267027 -0.67352445074507 -0.99518591299130
 6  10.17601478767877 -2.10523985888589 -1.42084374587459
 6  11.36768788588859 -0.30222111271127 -0.09429923122312
 6  12.80958812781278 -0.50005652155216 -0.65479601940194
 6  13.86400208800880 -0.10594735793579  0.18893610661066
 6  15.30048539253925 -0.21899451115111 -0.48624167446745
 6  15.71249535173517 -1.68072085788579 -0.81652893269327
 6  16.36644989898990  0.38138252435244  0.45434461916192
 6  17.82178788308831  0.52571069686969 -0.13647192709271
 6  18.70977637713771  1.36812865966597  0.85855821752175
 6  20.18517619741974  1.35774151875187  0.48452805640564
 6  20.47231746064606  2.17789343734373 -0.83201902330233
 6  21.06064393849385  2.06735110451045  1.52889959155916
 1 -4.21032129062906  3.48083646534654  1.45244976597660
 1 -10.21797554925493  3.73661124502450 -0.45303960656066
 1 -10.11945120692069 -2.64806486118612 -0.90602414991499
 1 -2.53414210491049 -1.12877254095410  1.76769400800080
 1 -2.28009764776478  1.70164865346535  1.18495286178618
 1 -1.81524524782478  0.91818730773077  3.59622983638364
 1 -3.07464225042504  2.33090254685469  3.39901446894690
 1 -3.75345632683268  0.70003437113711  3.72120600510051
 1 -2.05420794769477 -1.55936185658566 -0.48620360636064
 1 -2.29861406360636  0.11460355165517 -0.85866096769677
 1 -0.19966706070607  0.60701862536254  0.95814806670667
 1 -0.30118607230723 -1.07734070947095  1.21496437233723
 1 -4.66408857655766  6.35876105120512  0.72047382958296
 1 -6.17383205350535  6.50832063086309  1.70797548674867
 1 -4.59017224602460  5.29238440984098  2.07730140884088
 1 -9.55438293719372  5.78714165026503  0.41870971547155
 1 -8.38617925832583  8.10100869036904  0.31428202150215
 1 -7.06178121472147  7.22296286548655 -0.15312978357836
 1 -12.23705911871187  3.13818112341234 -2.07786408480848
 1 -13.21523673717372  1.88374401250125 -1.36792031573157
 1 -12.60206716811681  3.15637872327233 -0.33113461146115
 1 -12.44729725782578 -1.56413881208121 -0.97004721262126
 1 -13.43646965056506 -0.44980879387939 -1.54603196019602
 1 -12.98675914211421 -1.97265850505051 -3.31825482318232
 1 -12.30124029802980 -0.31460018591859 -3.78310588558856
 1 -11.46942028962896 -1.91045398939894 -3.24670378587859
 1 -9.15030592649265 -5.09977282558256 -1.55655323672367
 1 -8.04216791779178 -5.69918002620262 -0.40954518261826
 1 -9.59749191499150 -4.97592437943794  0.02089383318332
 1 -3.60117024902490 -3.28900048454846 -0.39766641964196
 1 -1.49095018501850 -4.32273065036504  3.23093978097810
 1 -2.55280046744675 -5.61578222062206  3.54880210231023
 1 -1.25141656815682 -6.03007718481848  2.38253495639564
 1  2.64325899699970 -1.67691738163816 -1.58356243254325
 1  2.54245594579458 -0.05766284788479 -2.23928594839484
 1  4.12516174047405 -0.85225323152315  0.29790216641664
 1  4.08347928422842  1.22771386768677 -3.04718806110611
 1  5.38225152355236  2.05824021422142 -2.18421277587759
 1  5.98436375917592  0.80521085128513 -3.07691899119912
 1  6.91080410371037  1.50933716141614 -0.04684718701870
 1  6.47530087808781 -0.02633588248825  0.86000700780078
 1  7.21585532763276 -1.24816588828883 -1.36410053875388
 1  7.74751628262826  0.22802967946795 -1.96937708460846
 1  9.07590368756876  0.65866848334834  0.18095205770577
 1  9.05321314411441 -0.90995935133513  0.77014163276328
 1  10.32784449594959 -0.19249448314831 -1.98789261986199
 1  9.43173967036704 -2.49978702300230 -2.15205016621662
 1  11.26929001370137 -2.21554806740674 -1.85423160916092
 1  10.22463993759376 -2.83942556515652 -0.65179727042704
 1  11.15535029722972  0.97343175067507 -0.18639667626763
 1  11.20359076877688 -0.63719605770577  1.23145061806181
 1  12.66489222492249 -1.66540340174017 -0.68112644754475
 1  12.76787569356936 -0.23080360136014 -1.86673503730373
 1  13.73077458065807  0.90733398889889  0.58112477297730
 1  13.89231532183218 -0.80225266256626  1.10678584828483
 1  15.29755214731473  0.52707256765677 -1.22943260276028
 1  15.68432043304331 -2.40755748164816  0.02946534893489
 1  15.22792032383238 -2.26486468006801 -1.77995571597160
 1  16.69072713131313 -1.81484541314131 -1.08601070987099
 1  15.96701191089109  1.35405447814782  0.59237265826583
 1  16.54428613061306 -0.20451684738474  1.37190012171217
 1  18.13175236713672 -0.32328929272927 -0.24332033963396
 1  17.80812089328933  1.10562182068207 -1.20773425732573
 1  18.59097778057806  2.48570046964696  0.94436953785379
 1  18.67214349174917  1.08944255555556  1.82651900350035
 1  20.55013508020802  0.25952238803880  0.35562331273127
 1  19.97107394069407  3.17166615151515 -0.69599986948695
 1  21.47678379227923  2.26759263716372 -1.29005025902590
 1  19.88823965716572  1.74064546684668 -1.84066448974898
 1  21.17719773507351  1.56909621342134  2.46528597019702
 1  22.08885352585258  2.01811034223422  1.07593185938594
 1  20.77077961056106  3.13374705090509  1.78798472967297

