%nproc=4
%Mem=2GB
# td=(NStates=1) CAM-B3LYP/6-31G(d,p) 

TD

0 1
12 -7.08613028232823  0.68404664536454  0.02871091969197
 6 -4.85577445854585 -1.99088119941994  0.48744437933793
 6 -4.87167647394740  2.78821314861486  1.13792724992499
 6 -9.38486307510751  3.02506490589059 -0.32852418541854
 6 -9.52685371297130 -1.76460663566357 -0.91073918891889
 7 -5.09743252485249  0.39870113061306  0.76292381278128
 6 -4.39798740404040 -0.77204782518252  0.78374027682768
 6 -2.95398635983598 -0.36812208430843  1.21526696789679
 6 -3.04815510471047  1.09479061156116  1.73199600600060
 6 -4.47809589628963  1.48719910031003  1.15283154435444
 6 -2.96448423942394  1.15799228652865  3.29709323542354
 6 -1.92595687658766 -0.44053806390639  0.07309663546355
 6 -0.50022827682768 -0.44363259465947  0.47787637053705
 6  0.53857323572357 -0.67522095419542 -0.52815446724672
 8  0.24551510121012 -1.02069347314731 -1.66118539883988
 8  1.82262928792879 -0.48360326712671 -0.10508472857286
 7 -7.12267987648765  2.64180558785879  0.31175633243324
 6 -6.11709884088409  3.35566652055206  0.71256924092409
 6 -6.52244023372337  4.71862249264926  0.95607337183718
 6 -7.83018361376138  4.80322020872087  0.40089699669967
 6 -8.22653320652065  3.46923721502150  0.11114145334533
 6 -5.64979076027603  5.91330242154215  1.47766429162916
 6 -8.66235544794480  6.01842691069107  0.25645566746675
 6 -8.07490668846885  7.27097318161816  0.07661339903990
 7 -9.15107014271427  0.67544402270227 -0.47364907020702
 6 -9.92540419941994  1.73809449204920 -0.54583970817082
 6 -11.21330607350735  1.45725671607161 -1.04780953055306
 6 -11.19747826852685  0.12640651795180 -1.14873413961396
 6 -9.89996988068807 -0.35899438753875 -0.81367066996700
 6 -12.19255749784979  2.54507678857886 -1.33828435933593
 6 -12.34366441214121 -0.78270933313331 -1.69236441364136
 6 -12.27817414941494 -1.30324420962096 -3.22742084748475
 7 -7.27768402050205 -1.42663202480248 -0.22548566726673
 6 -8.27203242554256 -2.21961790129013 -0.59307711361136
 6 -7.80530819831983 -3.58485266816682 -0.53568199719972
 6 -6.49744526652665 -3.57722203770377 -0.09544203630363
 6 -6.28053283148315 -2.18594474897490  0.07287890929093
 6 -8.66548689338934 -4.75169798869887 -0.90419996699670
 6 -5.29918645634563 -4.35776176147615  0.13522202210221
 8 -5.09112047384738 -5.52175482908291 -0.05771973717372
 6 -4.17063047304730 -3.26039897399740  0.53435432743274
 6 -3.68308267246725 -3.65595167976798  1.81966314601460
 8 -3.87087074167417 -3.12898613141314  2.88971268656866
 8 -2.86436778467847 -4.76387453995399  1.65109319731973
 6 -2.20774341284128 -5.33160362966297  2.88872020902090
 6  2.81567534413441 -0.74357361506151 -1.12270764566457
 6  4.19249257165717 -0.36461031043104 -0.51343387208721
 6  5.16823043044304  0.34806813131313 -1.05628552875288
 6  5.13073048964896  1.22028656495650 -2.30645773687369
 6  6.39176563416342  0.44443325022502 -0.17096378257826
 6  7.68622636153615 -0.22733461536154 -0.81704137283728
 6  9.00409949234924 -0.04961469496950  0.00927833363336
 6  10.20161105410541 -0.48860595889589 -0.81813820822082
 6  10.07846503270327 -2.04318365326533 -1.21360302180218
 6  11.39301041814181 -0.23719461006101  0.12533273197320
 6  12.81031820082008 -0.45814233013301 -0.62240278007801
 6  13.95679136693669 -0.14121088428843  0.24290150315031
 6  15.40227557155716 -0.13323593529353 -0.38248129842984
 6  15.72211631383138 -1.61399418521852 -0.78160544034403
 6  16.42933618761876  0.49620400650065  0.56734591929193
 6  17.77258296259626  0.44693281908191 -0.04665294519452
 6  18.94414981448145  1.40416226302630  0.63676603830383
 6  20.26988466826683  1.33478922352235  0.07996760036004
 6  20.44206443534353  1.99589523752375 -1.40932675407541
 6  21.29085695979598  1.93301767116712  0.93001970357036
 1 -4.13899415791579  3.39141752345235  1.54670919191919
 1 -10.16641039273927  3.88080566446645 -0.49943424602460
 1 -10.46548581038104 -2.26369642434243 -1.16535008250825
 1 -2.70318900960096 -0.86826649034904  2.19678691729173
 1 -2.36985662366237  1.49883837243724  1.30501486798680
 1 -2.07545126842684  0.72923841284128  3.76049626302630
 1 -2.96284107030703  2.29306876347635  3.52548711621162
 1 -3.81424240544054  0.86796116381638  3.67005088958896
 1 -2.20198272517252 -1.56506242664266 -0.45579056505651
 1 -2.03190739293929  0.15495758705871 -0.66047114871487
 1 -0.28172526652665  0.55503342684268  0.74579683158316
 1 -0.29159511321132 -0.90997397279728  1.31132400830083
 1 -4.77669983768377  6.17190236533653  0.76418820102010
 1 -6.37881255155516  6.62490228902890  1.85517020622062
 1 -4.96664989378938  5.69970514191419  2.40794447314731
 1 -9.67706520542054  5.76319925602560  0.18356620112011
 1 -8.66482712311231  8.03434202370237  0.05764635793579
 1 -7.08841387798780  7.51928249744974 -0.18494296489649
 1 -11.85208062086209  3.22229953525353 -2.34151044944494
 1 -13.20539575307531  2.02037767586759 -1.49401292499250
 1 -12.45755271667167  3.21030411581158 -0.42978447644764
 1 -12.51346387448745 -1.70816321452145 -1.04357456535654
 1 -13.39421542514251 -0.27625143814381 -1.49227658465847
 1 -13.02162262846285 -1.87869910911091 -3.44683768146815
 1 -12.28517869186919 -0.49074780068007 -3.92843041804180
 1 -11.36842018961896 -1.77391033503350 -3.35514462996300
 1 -9.24009490539054 -4.54233708200820 -1.90142772417242
 1 -7.98393209420942 -5.56290639883988 -1.03792802090209
 1 -9.60773293909391 -5.17660444744474 -0.26005426162616
 1 -3.41033116511651 -3.27588917341734 -0.26003265626563
 1 -1.69357044704470 -4.63744212151215  3.33494018101810
 1 -2.97842302970297 -5.85752639503950  3.44512173427343
 1 -1.38244967146715 -6.04853903100310  2.49761646454645
 1  2.68333300440044 -1.77168685858586 -1.22692676897690
 1  2.65598729892989 -0.12770985258526 -2.20325234503450
 1  4.46495571987199 -0.80867887408741  0.39081145734573
 1  4.23385432173217  1.37137823412341 -2.75764910721072
 1  5.33074637303730  2.21902629282928 -1.97177153175318
 1  5.93279860266027  0.79161949214922 -3.04002530183018
 1  6.39916293959396  1.64187041474147 -0.17784028632863
 1  6.17329067706771  0.08120487158716  0.97886889398940
 1  7.64698844094409 -1.42911398309831 -1.10566469516952
 1  7.73113464446445  0.29857673417342 -1.64948509540954
 1  9.27775387258726  0.90159277577758  0.12224618711871
 1  9.02444026682668 -0.52618097349735  0.96741135973597
 1  10.32446415791579  0.05911067736774 -1.65208903950395
 1  9.29757625402540 -2.06758380268027 -2.06549151035103
 1  11.04834791949195 -2.64980149274927 -1.62226841284128
 1  9.50559803340334 -2.61466308890889 -0.31283337403740
 1  11.36516127832783  0.73613802130213  0.67737970137014
 1  11.27966837653765 -0.83954629272927  1.15982345534553
 1  12.96700243594359 -1.54117097849785 -0.91555989088909
 1  12.60517942394239  0.06932641164116 -1.50304866866687
 1  13.52490399359936  0.88297155265527  0.94535119561956
 1  13.91311740204020 -0.61197363466347  1.02510768046805
 1  15.58466085818582  0.46643650405040 -1.37016667616762
 1  15.76466846784679 -2.25987271317132  0.14794719711971
 1  14.90406793859386 -1.98521671527153 -1.24845256565657
 1  16.64723278187819 -1.85433936253625 -1.28358046684668
 1  16.07586279597960  1.56798587128713  0.65229865086509
 1  16.35598730073007 -0.03496989268927  1.45595852755276
 1  18.29250844274428 -0.64431139493949  0.01665565796580
 1  17.87777785898590  0.76729798829883 -1.17105058895890
 1  18.53606228902890  2.58390028962896  0.68337343824383
 1  18.81959823722372  1.18496210751075  1.59830618221822
 1  20.48174824152415  0.34774120992099 -0.02197444704470
 1  20.29804663796380  3.19956894179418 -1.36288655815582
 1  21.47430354425443  1.77645352325233 -1.78281953595360
 1  19.44644547774777  1.77877928022802 -2.02196261956196
 1  21.22001201650165  1.58706801060106  1.98207764936494
 1  22.40528516901690  1.87452598379838  0.68543280948095
 1  21.35206773937394  3.00407408360836  1.00583651485149

