%nproc=4
%Mem=2GB
# td=(NStates=1) CAM-B3LYP/6-31G(d,p) 

TD

0 1
12 -7.13503517281728  0.56919516021602  0.11152920152015
 6 -4.87064594569457 -1.90056216751675  0.57916355125513
 6 -4.87243654995499  2.86822114941494  1.12085554275428
 6 -9.51315590439044  2.95993839323932 -0.12984431743174
 6 -9.55107613521352 -1.81173134813481 -0.86707482248225
 7 -5.06229901150115  0.40277153765377  0.72116963736374
 6 -4.29191679697970 -0.64682530293029  0.86254815761576
 6 -2.89716067726773 -0.26565183728373  1.13567900910091
 6 -3.06897718691869  1.18976010851085  1.57146995339534
 6 -4.39048713541354  1.51453183358336  1.09296555775578
 6 -2.92811060206021  1.49024551185119  3.09749327542754
 6 -1.90770505140514 -0.57400141024102  0.11737106290629
 6 -0.44179243324332 -0.48168640004000  0.57040562346235
 6  0.55177455585559 -0.59091252335234 -0.70907255905591
 8  0.32745329502950 -1.02174357815782 -1.73857313761376
 8  1.79182620762076 -0.26610151695169 -0.25389961006101
 7 -7.19821743024302  2.61642304960496  0.35908106490649
 6 -6.14554168516852  3.48401935583558  0.74240222422242
 6 -6.57876586628663  4.75340597099710  0.87842560706071
 6 -7.94989558495850  4.80762064876488  0.49807671467147
 6 -8.25736628982898  3.48448874017402  0.24735507470747
 6 -5.70635641684168  5.90551164246425  1.30136666186619
 6 -8.87215642804281  5.88280334833483  0.42879290119012
 6 -8.41816101390139  7.14698078237824  0.23431916961696
 7 -9.16018105380538  0.57562404070407 -0.47123882918292
 6 -9.93730538953895  1.77262794539454 -0.61237636183618
 6 -11.27659240214022  1.43260425082508 -0.99876462606261
 6 -11.18125664636464  0.04853873117312 -1.31260052625263
 6 -9.95753563726373 -0.40579906800680 -1.01226052895290
 6 -12.34252249434943  2.45315759665967 -1.45062559345935
 6 -12.38687873357336 -0.70560162236224 -1.86449162636264
 6 -12.15968230023002 -1.08483236843684 -3.36653475887589
 7 -7.21738799089909 -1.39698906050605  0.04520140144014
 6 -8.30938616091609 -2.21220716021602 -0.53708151405141
 6 -7.86681434893489 -3.55586976987699 -0.58935736473647
 6 -6.54719024102410 -3.50362467796780 -0.01683417551755
 6 -6.17585236343634 -2.16033218771877  0.18127974937494
 6 -8.58654899959996 -4.88452127102710 -0.91673122012201
 6 -5.37443398109811 -4.37916390169017  0.27465596549655
 8 -5.19337069886989 -5.57256991059106  0.15630166496650
 6 -4.08831224122412 -3.27041997609761  0.61281217321732
 6 -3.49630399459946 -3.70594667926793  1.94268544824482
 8 -3.86746040064006 -3.15771900470047  2.95771948724872
 8 -2.70600194809481 -4.70715886838684  1.77000508850885
 6 -2.08417105560556 -5.26795726502650  2.88298963596360
 6  2.81264504110411 -0.55585484318432 -1.25952132703270
 6  4.17095041744174 -0.36047989738974 -0.56996952565257
 6  5.10616422382238  0.33528685318532 -1.11028092829283
 6  5.15272268886889  1.15161969826983 -2.39538662976298
 6  6.39686614421442  0.38518732563256 -0.17130381658166
 6  7.63249098799880 -0.21983386528653 -0.86112578127813
 6  8.96562564496450 -0.13570330383038 -0.10923351755176
 6  10.22607350035003 -0.59209630793079 -0.78606500090009
 6  10.29080626682668 -1.95151448634863 -1.30597225872587
 6  11.47201831893189 -0.30485137573757  0.05785598429843
 6  12.77394456345634 -0.45093160906091 -0.78819935973597
 6  13.99649533733373 -0.18044480768077  0.18008522152215
 6  15.38083342734273 -0.17217982968297 -0.55098814911491
 6  15.73690779297930 -1.69048183398340 -0.79313659345935
 6  16.43882713671367  0.37999238533853  0.33632281698170
 6  17.87965366966697  0.56481460726073 -0.29076735663566
 6  18.97961336083608  1.06006785358536  0.73041540324032
 6  20.40865854565456  1.27727347194719  0.17241684528453
 6  20.53606383528353  2.23775942394239 -0.97188300970097
 6  21.27404527862786  1.78782315171517  1.37069377097710
 1 -4.12937319581958  3.57949633133313  1.41838635963596
 1 -10.37812156385639  3.72027961186119 -0.21973627622762
 1 -10.11061032283228 -2.75030508520852 -1.13865741324132
 1 -2.88699739043904 -0.85750541424142  2.07493473207321
 1 -2.23967360536054  1.71529001760176  1.14164853135313
 1 -1.83300702400240  1.56858234723472  3.43149336273627
 1 -3.09247403360336  2.51705116171617  3.37766233373337
 1 -3.63735471667167  0.63938830653065  3.67661154565457
 1 -2.01204373127313 -1.71486740714071 -0.20484547054705
 1 -2.19669387158716  0.28966105740574 -0.70437553915391
 1 -0.32371946594659  0.57448537203720  1.07258951085109
 1 -0.35401135483548 -1.26912988838884  1.17960083598360
 1 -5.36451861956196  6.32127730283028  0.35849763196320
 1 -6.32475714601460  6.73109290809081  1.77684237343734
 1 -4.88792202100210  5.73656882828283  2.08860253895390
 1 -9.83679117801780  5.72651558765877  1.11945979047905
 1 -8.95830647104710  8.13220180968097  0.29737033033303
 1 -7.48415345194520  7.34545511471147  0.02351788118812
 1 -12.02090750355035  2.87208451375137 -2.64908120652065
 1 -13.35320053355335  2.03013865196520 -1.47188071177118
 1 -12.30300726212621  3.29954303970397 -0.71316281428143
 1 -12.39653218131813 -1.75218761696170 -1.41125133303330
 1 -13.43291929552955 -0.34947876087609 -1.61265862286229
 1 -13.07633810001000 -1.52998423762376 -3.62585558325833
 1 -12.29347952195220 -0.17391611751175 -3.93964153915392
 1 -11.34512786038604 -1.63975691969197 -3.50096921242124
 1 -9.23503439933993 -4.82227507580758 -1.79468705010501
 1 -7.73425712671267 -5.51625173337334 -0.86644087218722
 1 -9.31926409220922 -5.23883067006701 -0.06994525072507
 1 -3.41691182318232 -3.49386097059706 -0.26741339433943
 1 -1.62405349534953 -4.40859923722372  3.55395208220822
 1 -2.89494468186819 -5.82776341874187  3.49363658575858
 1 -1.45666709320932 -5.92632680978098  2.41201790469047
 1  2.58965363646365 -1.59330902080208 -1.50710478677868
 1  2.51645334553455  0.01662458085809 -2.26844886468647
 1  4.26547577187719 -1.10971897809781  0.27095947214721
 1  4.35197613391339  1.15209630593059 -3.06948029032903
 1  5.57169046744675  2.16521091129113 -2.23072742734273
 1  6.05105042784278  0.57887821802180 -2.95029632893289
 1  6.76375939923992  1.46849307700770 -0.15890839313931
 1  6.08902225022502 -0.01082433133313  0.72877388448845
 1  7.40248399049905 -1.35320639233923 -1.19767389608961
 1  7.78268979998000  0.21807868436844 -1.84474462136214
 1  9.25727182438244  0.98376099259926  0.33270723322332
 1  8.62074989778978 -0.68937729312931  0.74396901550155
 1  10.24644635613561  0.08524329062906 -1.67339116971697
 1  9.29628612501250 -2.21459850415041 -2.02323728492849
 1  11.15707879257926 -2.30763727632763 -1.84592077807781
 1  10.01256873047305 -2.69466108870887 -0.50827291799180
 1  11.35638040024002  0.68127253475348  0.71231319471947
 1  11.39599000870087 -1.11614395249525  0.92319979297930
 1  13.04297003270327 -1.46014287568757 -1.24637297219722
 1  12.70583948994900  0.23260273927393 -1.47177554135414
 1  13.84933643684368  0.91289454495450  0.55115177567757
 1  13.86399248954895 -0.79892232953295  1.17673284298430
 1  15.36762915501550  0.50828068846885 -1.29934959445945
 1  15.69882188318832 -2.01396812271227  0.18959136153615
 1  14.98148568036804 -2.30801899549955 -1.45621334173417
 1  16.64982304090409 -1.87677160576058 -1.23582569136914
 1  16.26021123082308  1.44787386008601  0.51208462946295
 1  16.42981468346835 -0.18603499919992  1.39501243294329
 1  18.09935912781278 -0.38651561536154 -0.75977198479848
 1  17.79767984918492  1.26890814931493 -1.02196568046805
 1  18.59079776257626  2.05586748634863  1.08744384528453
 1  18.87326360376037  0.33693730503050  1.41547789938994
 1  20.71654172087209  0.18846528232823 -0.12338458805881
 1  20.57066389968997  3.29822880778078 -0.44997526702670
 1  21.46629274317432  2.28788466636664 -1.48516977097710
 1  19.71344217741774  2.14731613391339 -1.93157358065807
 1  21.07131714701470  1.11797110091009  2.31711115271527
 1  22.22423706420642  1.91990052125213  0.99249351555156
 1  20.90998353095310  2.79781345754575  1.55449138033803

