%nproc=4
%Mem=2GB
# td=(NStates=1) CAM-B3LYP/6-31G(d,p) 

TD

0 1
12 -7.19842151145115  0.52973121382138  0.09933798239824
 6 -4.73430231133113 -1.93679579087909  0.36168180308031
 6 -4.85244455075508  2.79484381168117  1.24411786898690
 6 -9.46285087388739  3.04427682708271 -0.31954328732873
 6 -9.48546957455746 -1.79699987498750 -0.92659077407741
 7 -5.19553233483348  0.33099435993599  0.74494201460146
 6 -4.29845745104510 -0.76870749114911  0.90150205300530
 6 -2.97012797399740 -0.31863713581358  1.25716115731573
 6 -3.10625091429143  1.13007413991399  1.76509931633163
 6 -4.49222730943094  1.49771015141514  1.19172543374337
 6 -2.75519331033103  1.33863035033503  3.18452197829783
 6 -1.98766304720472 -0.61292530263026  0.16033535933593
 6 -0.47857611161116 -0.44093232463246  0.65012359525953
 6  0.47670704910491 -0.63402683478348 -0.50124177597760
 8  0.21348189788979 -1.03427483128313 -1.60395967626763
 8  1.77648467346735 -0.46393129992999 -0.09409362946295
 7 -7.18804641314131  2.60437184448445  0.45573072987299
 6 -6.18302543354335  3.32359331323132  0.87501548554855
 6 -6.53692168186819  4.78044867526753  0.89643740824082
 6 -7.78753934933493  4.82919280598060  0.46812371937194
 6 -8.24907546074607  3.37968826012601  0.19532987218722
 6 -5.67476325752575  5.79274036533653  1.29413593879388
 6 -8.60731994439444  6.01751681968197  0.29839986188619
 6 -8.09466866466647  7.20289637393739  0.09020475817582
 7 -9.21842687838784  0.66662314061406 -0.40465217051705
 6 -9.97293895289529  1.77031771437144 -0.59009413361336
 6 -11.27866260916092  1.42116310671067 -1.12038678827883
 6 -11.23697221792179  0.03735761306131 -1.26837610381038
 6 -9.91760164386439 -0.43920240834083 -0.89842914581458
 6 -12.31251949404941  2.43225550645065 -1.41380191109111
 6 -12.58041808750875 -0.86156721892189 -1.79723490069007
 6 -12.48714504650465 -1.02230611581158 -3.30121822722272
 7 -7.23629988208821 -1.32128148974897 -0.35628874757476
 6 -8.27361258355836 -2.26716265576558 -0.68252605850585
 6 -7.71795946344634 -3.65130931383138 -0.66349477847785
 6 -6.48255377737774 -3.56737105260526 -0.25429792189219
 6 -6.17904268246825 -2.17765391989199  0.05062668406841
 6 -8.43494383908391 -4.83017583648365 -1.01044059105911
 6 -5.25418195589559 -4.37044302960296  0.07843634353435
 8 -5.11313267506751 -5.55650830443044  0.03592962776278
 6 -4.16279968996900 -3.32815574967497  0.51794268626863
 6 -3.59356372057206 -3.66180226482648  1.90490166986699
 8 -3.94914856945695 -3.00098333113311  2.96043975927593
 8 -2.70910225812581 -4.66848500100010  1.97288537653765
 6 -2.19109174767477 -5.02462293159316  3.21556289328933
 6  2.85773955055506 -0.80096935463546 -1.08524389928993
 6  4.11533485588559 -0.30106395579558 -0.46046857555756
 6  5.07950155755576  0.48862218671867 -0.87483738393839
 6  5.00939835643564  1.09769430573057 -2.30983807490749
 6  6.43937039463946  0.52870167706771 -0.18882556875688
 6  7.63882162106211  0.01281940004000 -1.01942161086109
 6  8.93318240064006  0.09218948544854 -0.14477707190719
 6  10.18715960896090 -0.38597569586959 -0.89608600300030
 6  10.23250043624362 -1.82650198509851 -1.43314497599760
 6  11.52536365346535 -0.15760665126513 -0.01359116041604
 6  12.85720288928893 -0.48149466536654 -0.66764730453045
 6  14.01735742354235 -0.12252901610161  0.19263647664766
 6  15.44692003600360 -0.27886049774978 -0.52334538483848
 6  15.69727382958296 -1.65362814861486 -0.97185446524652
 6  16.53517677167716  0.14981936803680  0.55462464716472
 6  17.86799250355035  0.41790991679168 -0.37449572947295
 6  18.92775817531753  1.13185503230323  0.62168453015302
 6  20.37848552835284  1.25886163076308  0.18858846244624
 6  20.37914814371437  2.15126077407741 -1.12018784018402
 6  21.26049392349235  1.77914228362836  1.33389009060906
 1 -4.37998825732573  3.43886226792679  1.66235075607561
 1 -10.23602735443544  3.86270385428543 -0.56551085368537
 1 -10.23793305510551 -2.59327938263826 -1.05485903340334
 1 -2.73719240994099 -0.86513617731773  2.18102534113411
 1 -2.26556619461946  1.83514200280028  1.16768113461346
 1 -1.74939866316632  1.23013850285029  3.55508572197220
 1 -3.13541832803280  2.25862531913191  3.63752832033203
 1 -3.52838381958196  0.72248661636164  3.56784066856686
 1 -1.94035656255626 -1.65529144954495 -0.12539752575258
 1 -2.21480568276828  0.12736482778278 -0.75103020462046
 1 -0.26845393939394  0.45846376987699  1.29010126202620
 1 -0.22766872057206 -1.41359433483348  1.20608348424842
 1 -4.95440760846085  6.27879305440544  0.49616139833983
 1 -6.12870754105410  6.72431223002300  1.73972866206621
 1 -4.92385561436144  5.28853402480248  1.90081376007601
 1 -9.57838533743374  5.80855379147915  0.12395023952395
 1 -8.59752039243924  7.94555314481448 -0.17882728942894
 1 -7.06762179877988  7.22855342454246 -0.08454292489249
 1 -12.21627704050405  3.09356666196620 -2.38540483888389
 1 -13.18963417691769  1.90641627972797 -1.51565508920892
 1 -12.31058802020202  3.33876696209621 -0.70689218721872
 1 -12.63421594969497 -1.78882128032803 -1.24587479537954
 1 -13.41509751335133 -0.25520933393339 -1.55103246024602
 1 -13.32585305150515 -1.43196443564357 -3.64098709640964
 1 -12.57292746674668 -0.01304002990299 -3.66520409540954
 1 -11.54077742534253 -1.46477942194219 -3.70487960346035
 1 -8.59827072297230 -4.90457330563056 -2.19473705510551
 1 -7.92115581658166 -5.80259036723672 -0.79279350745075
 1 -9.47513967976798 -4.97838462546255 -0.45783403960396
 1 -3.38825895789579 -3.32802438693869 -0.22390904390439
 1 -1.76201729172917 -4.10687906520652  3.62872955995600
 1 -2.80070525792579 -5.35372601500150  3.86401362346235
 1 -1.37587901440144 -5.55997017411741  2.87392409530953
 1  2.64922959405941 -1.69916960686069 -1.43757783408341
 1  2.55049674987499 -0.10574765636564 -1.84647666746675
 1  4.34414363866387 -0.65964397059706  0.63005538173817
 1  3.87607854415441  1.17221831813181 -2.78539188148815
 1  5.17255055345535  2.11089547974797 -2.29479383398340
 1  5.64858018081808  0.53403373357336 -3.07464876417642
 1  6.74255727902790  1.50507673537354  0.16563406110611
 1  6.57413076107611  0.00503725482548  0.57624863196320
 1  7.15599934203420 -0.90810188188819 -1.16041016971697
 1  7.85677720872087  0.41462833933393 -1.84641478837884
 1  9.08720481768177  1.22881549804980  0.11729569206921
 1  8.79629745254525 -0.34156251165117  0.73271789038904
 1  10.42414412591259  0.25185995229523 -1.74338816941694
 1  9.10403690009001 -1.95529257355736 -1.94817977917792
 1  10.94705779047905 -2.03006951955195 -2.26706289228923
 1  10.16365383898390 -2.71183280588059 -0.59534162486249
 1  11.59728449064906  0.90317472497250  0.61364332773277
 1  11.29820022972297 -0.82359469756976  0.86854432743274
 1  13.04110984668467 -1.60103696509651 -1.02321065596560
 1  12.99932883888389  0.11427090609061 -1.63179154295430
 1  14.22289379257926  0.93751700720072  0.60176683718372
 1  14.15725181548155 -0.89361179847985  1.01063623332333
 1  15.35024741684168  0.33026288668867 -1.36365602510251
 1  16.10426242724273 -2.20552727862786 -0.17090468806881
 1  14.71674920672067 -2.22222041564156 -1.42345006540654
 1  16.61948000660066 -1.73238716731673 -1.77906001480148
 1  16.19426463616362  1.18602767546755  0.99535295629563
 1  16.54291599359936 -0.53249964566457  1.50046297799780
 1  18.06634582648265 -0.54252121592159 -0.68530453805381
 1  17.48858894009401  1.17055831433143 -1.05541902580258
 1  18.51798048084808  2.04207610721072  1.11742684358436
 1  18.84279055645564  0.57017062836284  1.58826517811781
 1  20.86183625032503  0.33772020782078 -0.24873712331233
 1  19.75181201450145  3.07700668556856 -0.77469773927393
 1  21.50884699859986  2.55871174907491 -1.39055030903090
 1  19.94723555675568  1.78904030633063 -2.01311173447345
 1  21.30996101140114  0.99787909170917  2.14520396199620
 1  22.43401804230423  1.91345987718772  1.13256752295229
 1  20.74054658725873  2.69833350955096  1.61615754695470

