%nproc=4
%Mem=2GB
# td=(NStates=1) CAM-B3LYP/6-31G(d,p) 

TD

0 1
12 -7.17010868016802  0.61338957965797  0.07139518811881
 6 -4.90466934803480 -2.01515362666267  0.47070270517052
 6 -4.79172847914792  2.77340166746675  1.12554601180118
 6 -9.33636822562256  3.11144354375438 -0.41150248324832
 6 -9.59005003260326 -1.80411058605861 -0.83006112111211
 7 -5.02891567316732  0.44295555605561  0.65626314671467
 6 -4.38563616891689 -0.78922954335434  0.80190209300930
 6 -2.91188214941494 -0.42842811491149  1.23513895509551
 6 -3.04622491169117  1.06120725322532  1.60204301070107
 6 -4.43488157485749  1.41987236763676  1.21273753495350
 6 -2.90128791979198  1.32344883218322  3.14845837193719
 6 -1.97050133103310 -0.72648665876588  0.04722404820482
 6 -0.47566582058206 -0.45066329772977  0.55724430733073
 6  0.49218859725973 -0.62015544764476 -0.59539119091909
 8  0.22903345304530 -0.82458386218622 -1.85392467276728
 8  1.75690271527153 -0.44685959275928 -0.15693991409141
 7 -7.05718332683268  2.56924833213321  0.38167332413241
 6 -6.01561869286929  3.32003295719572  0.78362634663466
 6 -6.42759074877488  4.72623325372537  0.88905667016702
 6 -7.65132572797280  4.81720160686069  0.46710361736174
 6 -8.12943349654965  3.45907619891989  0.11298163736374
 6 -5.56937271847185  5.85565665696570  1.39237576277628
 6 -8.49475868826883  6.01925699369937  0.30521054295430
 6 -8.16923612141214  7.27267335163516 -0.05664992729273
 7 -9.10619565526553  0.62574905320532 -0.52368407370737
 6 -9.88345000400040  1.76303698629863 -0.60264538873887
 6 -11.14248899179918  1.52684367476748 -1.17739248884888
 6 -11.28709723042304  0.16879075637564 -1.15730499669967
 6 -9.99360924462446 -0.51141963006301 -0.74998430133013
 6 -12.20398864096410  2.48170045094509 -1.30552108300830
 6 -12.46000604630463 -0.68647971017102 -1.55830100730073
 6 -12.45517184918492 -1.18101198639864 -3.13166127152715
 7 -7.23826007810781 -1.38936829842984 -0.14573769246925
 6 -8.31474669696970 -2.28731467096710 -0.46240404630463
 6 -7.87381504900490 -3.57160134303430 -0.52032046104610
 6 -6.56204172617262 -3.57604191969197 -0.15721821392139
 6 -6.21887666586659 -2.15872202670267  0.15501712311231
 6 -8.61756210091009 -4.91786460536054 -0.83199274627463
 6 -5.38901543924392 -4.39884586988699  0.14217271717172
 8 -5.17662902470247 -5.61582423602360  0.18840487528753
 6 -4.20409381938194 -3.36245918001800  0.52642353435344
 6 -3.54921928612861 -3.75744182878288  1.82684386408641
 8 -3.83412706730673 -3.18998223102310  2.85863957925793
 8 -2.71040238813881 -4.76335448794879  1.71726981498150
 6 -1.91432407090709 -5.24243471277128  2.93661499849985
 6  2.71818559515952 -0.59364862256226 -1.15807118201820
 6  4.18611193359336 -0.35351920132013 -0.58292082078208
 6  5.10614422182218  0.42134545904590 -1.05415531573157
 6  5.02993040964096  1.24050858715872 -2.37946503760376
 6  6.46215267286729  0.39392819971997 -0.29490617681768
 6  7.71279901880188 -0.03209509140914 -1.06888655735574
 6  8.88377746014601 -0.07675740924092 -0.17024961916192
 6  10.17884877787779 -0.50158725702570 -0.88806520092009
 6  10.15734292049205 -1.99867920282028 -1.08709037053705
 6  11.43903502060206 -0.16843773437344 -0.01238103940394
 6  12.77213438243824 -0.22028854475448 -0.64257479727973
 6  13.98048373617362  0.02978621542154  0.15892310531053
 6  15.32355769976998 -0.22968558025803 -0.45986903720372
 6  15.55258936113611 -1.71208399419942 -0.80886816661666
 6  16.48469172317231  0.43327771387139  0.39749893459346
 6  17.80672637693770  0.53218134393439 -0.28329660956096
 6  18.95108050755076  1.12572441924192  0.78260062176218
 6  20.30468814861486  1.24227997259726  0.31403100670067
 6  20.40345057395739  2.05749139713971 -1.05209103050305
 6  21.13528140224022  1.88489285868587  1.36997369896990
 1 -4.07799805830583  3.47432581428143  1.60764528552855
 1 -9.92799655135514  3.99119670357036 -0.51639594219422
 1 -10.58263752555255 -2.58766882158216 -0.83628717621762
 1 -2.49194788548855 -1.02146180988099  2.08197543614361
 1 -2.37058669666967  1.71852034063406  1.00994536103610
 1 -1.81578530183018  1.09511500050005  3.65344555795580
 1 -3.12798758495850  2.35494495109511  3.32284685218522
 1 -3.71617259845985  0.51669603730373  3.54437832233223
 1 -2.35091761866187 -1.76590251065107 -0.41941692769277
 1 -2.04566876907691 -0.17788569726973 -0.79107420902090
 1 -0.46023311731173  0.42758068156816  1.24022627452745
 1 -0.21150710441044 -1.19489246464646  1.15449832573257
 1 -4.91879404710471  6.18767394249425  0.55489727192719
 1 -6.20711538183818  6.57621742054205  1.88944363356336
 1 -4.82018524732473  5.39759493089309  2.11236491519152
 1 -9.58429592849285  5.94170710681068  0.35252309680968
 1 -8.94017465786579  8.08103669316932 -0.19666907360736
 1 -7.06678171477148  7.62577314651465 -0.03475794639464
 1 -11.99792520532053  3.32887019231923 -2.16016231463146
 1 -13.35174038753875  2.21702734083408 -1.43191671537154
 1 -12.30981794319432  3.38556164156416 -0.56676817481748
 1 -12.51072360046005 -1.74384678287829 -1.10298050595059
 1 -13.52732873647365 -0.37345115811581 -1.63777113411341
 1 -13.33149361556156 -1.69415065426543 -3.31776477417742
 1 -12.67066724072407 -0.27339606550655 -3.80251782678268
 1 -11.38916226382638 -1.54266721072107 -3.41452056755676
 1 -9.08862975887589 -4.80543339163916 -1.81335891729173
 1 -7.91471517251725 -5.86052616081608 -0.92970719881988
 1 -9.33233539933993 -4.99508629562956  0.03480522432243
 1 -3.43823395539554 -3.11543312781278 -0.30319697269727
 1 -1.41488257825783 -4.33303168046805  3.50245693269327
 1 -2.77298248564857 -5.55708635103510  3.62338956105611
 1 -1.33889531603160 -5.95554973207321  2.52241894479448
 1  2.52575724682468 -1.42773246314631 -1.78891296759676
 1  2.50616231643164  0.35485840424042 -1.78201022082208
 1  4.31380060436044 -0.77505551175118  0.35646802300230
 1  3.91842277857786  1.40814191049105 -2.71375471777178
 1  5.51069436783678  2.25426981718172 -2.06759111371137
 1  5.60777610041004  0.81280161036104 -3.11014231353135
 1  6.49425244854485  1.33819004670467  0.03053055075508
 1  6.48500184818482 -0.14497774667467  0.66101710881088
 1  7.54971871397140 -0.90015108680868 -1.59729385808581
 1  7.78079961096110  0.83826070257026 -1.90102024892489
 1  9.00381647884788  0.86165878237824  0.22746670917092
 1  8.65830365316532 -0.72084043944394  0.67810242884288
 1  10.35833754525452  0.14232899919992 -1.92137596819682
 1  9.08502499889989 -2.27846489078908 -1.66833179437944
 1  10.86621970667067 -2.59016552915292 -1.83588977497750
 1  9.93324079767977 -2.49082070467047 -0.19088117881788
 1  11.33446820902090  0.93384779227923  0.46326829022902
 1  11.44495490519052 -1.01620395849585  0.75501297429743
 1  12.70999673537354 -1.27506436783678 -1.12749108400840
 1  12.75261416741674  0.44728420742074 -1.55201356515652
 1  13.76476797999800  1.13430668616862  0.79702636313631
 1  13.83378946924693 -0.49166160346035  1.06620178987899
 1  15.46244863696370  0.31000086048605 -1.42103176267627
 1  15.41677367836784 -2.07315404130413  0.38620102250225
 1  14.73411094289429 -2.02295048864886 -1.34303202360236
 1  16.47014507310731 -2.08323225182518 -1.35367747654766
 1  16.06770197989799  1.44359343204320  0.69259268026803
 1  16.71261296329633 -0.22340873657366  1.40508344004400
 1  18.42079127102711 -0.40123708750875 -0.72571857945795
 1  17.71729181038104  1.36980823932393 -1.14554803870387
 1  18.60632931573157  2.24291619121912  0.85642074297430
 1  18.79134541194119  0.75672928422842  1.71700805240524
 1  20.67276734343434  0.10435687148715  0.12772052245225
 1  20.17302413571357  3.25393437833783 -0.86532680218022
 1  21.49035514941494  1.95511138903890 -1.49869112311231
 1  19.53573440664066  1.80066146844684 -1.57844826812681
 1  20.94249426472647  1.28291759555956  2.39617905950595
 1  22.09630427092709  1.93363189438944  1.15079934613461
 1  20.72315484808481  2.75708938513851  1.80406633783378

