%nproc=4
%Mem=2GB
# td=(NStates=1) CAM-B3LYP/6-31G(d,p) 

TD

0 1
12 -7.18823049234924  0.62079031973197  0.12990103870387
 6 -4.89084796589659 -1.97727983928393  0.44097973287329
 6 -4.73786309260926  2.86238056535654  1.09505296249625
 6 -9.39537412621262  3.13922632203220 -0.28136946994699
 6 -9.58180920852085 -1.78650882588259 -0.81129924492449
 7 -5.13565634723472  0.38652991349135  0.68155567596760
 6 -4.38182578787879 -0.70463108350835  0.59783168596860
 6 -2.92372333353335 -0.36408168026803  1.05164060526053
 6 -2.99796008520852  1.01170230273027  1.54755756215622
 6 -4.19008709540954  1.45336571697170  0.94380064126413
 6 -2.83933172417242  1.27304379167917  3.01944547064706
 6 -1.84655893679368 -0.66090010011001 -0.04041471567157
 6 -0.45601385538554 -0.48725695709571  0.42681126402640
 6  0.50264964336434 -0.67389082118212 -0.65840749254926
 8  0.16804735443544 -0.93286469026903 -1.76134541484148
 8  1.76103312831283 -0.50243515031503 -0.25528974907491
 7 -7.12965057355736  2.62134354165417  0.33674883168317
 6 -6.03554068506851  3.33304425832583  0.79940792479248
 6 -6.42437042674267  4.76332696309631  0.80237800230023
 6 -7.71401199659966  4.84223411011101  0.51710861786179
 6 -8.14121467466747  3.48063835513551  0.18269860906091
 6 -5.64858063926393  5.89178026932693  1.38027455265527
 6 -8.54578379077908  5.97760282828283  0.40014003590359
 6 -8.20704990279028  7.26514259855986  0.09935567326733
 7 -9.11629666536654  0.66856333463346 -0.41618332363236
 6 -9.86475813481348  1.78241892449245 -0.58585370957096
 6 -11.23380812371237  1.39882087248725 -0.99218396799680
 6 -11.23168168886889  0.11118499579958 -1.17266653285329
 6 -9.93751363506351 -0.44252274037404 -0.80586988988899
 6 -12.29344758685869  2.40210249114911 -1.27805833673367
 6 -12.43392343804380 -0.78679974217422 -1.70531570877088
 6 -12.44822115411541 -1.13998788398840 -3.19421752715272
 7 -7.26735298739874 -1.39574893649365 -0.11168428712871
 6 -8.26576179847985 -2.23436937643764 -0.54896270217022
 6 -7.82290995849585 -3.51166534943494 -0.46273470247025
 6 -6.56896241824182 -3.52602691819182 -0.11676416851685
 6 -6.17252203040304 -2.17955410991099  0.11500312171217
 6 -8.59667001170117 -4.94743756265627 -0.82831237823782
 6 -5.33240977867787 -4.35731171647165  0.18713721362136
 8 -5.31784314611461 -5.56954960856086  0.18448448324832
 6 -4.07576098609861 -3.25902883698370  0.47328822082208
 6 -3.56833119731973 -3.59509559415942  1.77211839153915
 8 -3.74397805240524 -3.02929616241624  2.90242395769577
 8 -2.79182052995300 -4.66256440894089  1.75959404740474
 6 -2.14896753525353 -5.22050251955195  2.79337067406741
 6  2.87574135073507 -0.71485074277428 -1.30671604650465
 6  4.14316763916392 -0.51256510591059 -0.61274380308031
 6  5.10095370277028  0.33375670017002 -0.93598349854986
 6  5.05783319991999  1.42389692599260 -1.99502659375938
 6  6.42607906550655  0.40770957785779 -0.05722240844084
 6  7.71707944684468 -0.04161604350435 -0.96603627232723
 6  8.95415449784979  0.00206047254725 -0.15861845604560
 6  10.25392628562856 -0.54097119541954 -0.81673806820682
 6  10.15500268646865 -2.00053938883888 -1.19697135863586
 6  11.42437355445545 -0.28705959655966  0.15153535223522
 6  12.75850301930193 -0.59504602050205 -0.58853939373937
 6  13.95131081888189 -0.16214297749775  0.17675488848885
 6  15.32394773877388 -0.17969058075808 -0.45921897219722
 6  15.68733283548355 -1.76115890169017 -0.68857613741374
 6  16.42951620562056  0.38644303040304  0.41586077077708
 6  17.76847255155516  0.53343146894689 -0.16471475137514
 6  18.81192659215922  1.33141498829883  0.72472483418342
 6  20.28377605740574  1.35373111771177  0.16953655725573
 6  20.33033326222622  2.15857150515052 -1.18075389678968
 6  21.18171604570457  1.98115248464846  1.23981068266827
 1 -3.82364262276228  3.44273265496550  1.28746326732673
 1 -10.01164491619162  4.02743032693269 -0.58500280288029
 1 -10.39095835763576 -2.47130718541854 -1.12644619211921
 1 -2.64314300500050 -1.08816848054805  1.85200243884388
 1 -2.29289892789279  1.66253474207421  1.06047041354135
 1 -1.87744146744674  0.73688917791779  3.25733594699470
 1 -3.03475826202620  2.25727518411841  3.44236880438044
 1 -3.28428941014101  0.57228159585959  3.52441632613261
 1 -1.99363189008901 -1.79373529392939 -0.32818780478048
 1 -2.14662886508651  0.15950804210421 -0.87796289788979
 1 -0.38179527352735  0.41665958945895  0.67493974587459
 1 -0.23826978067807 -1.01029400480048  1.50465334123412
 1 -4.89152131983198  6.36979215431543  0.72310409260926
 1 -6.34379905020502  6.54871467026703  1.85758044724472
 1 -4.93819704850485  5.59259443084308  2.39555323402340
 1 -9.73519101800180  6.05697863396340  0.57970581508151
 1 -8.74031467186719  8.13970255975597  0.38280887418742
 1 -7.14691972857286  7.56692726192619 -0.01422589318932
 1 -12.23097851065107  2.84901220652065 -2.31103740214021
 1 -13.28911412491249  1.91259689778978 -1.54530805450545
 1 -12.40750771217122  3.05840892629263 -0.27097859585959
 1 -12.43577610571057 -1.61936433463346 -1.13971417931793
 1 -13.30955695929593 -0.35755956895690 -1.40296765376538
 1 -13.28913938013801 -1.93625486468647 -3.64675767346735
 1 -12.44239441344135 -0.28341706760676 -4.02494006900690
 1 -11.54928827642764 -1.73474641864186 -3.31804091959196
 1 -9.01467236313631 -5.09952280058006 -1.95859344074407
 1 -7.78527222822282 -5.78928903710371 -0.44125835393539
 1 -9.46452861866186 -5.01235802280228 -0.23172142834283
 1 -3.54872500450045 -3.52701428592859 -0.37104375737574
 1 -1.17344843484348 -4.74657303460346  3.40061674867487
 1 -2.89216440384038 -5.38033867626763  3.69938716081608
 1 -1.81051247774777 -6.19407358445845  2.43626032893289
 1  2.63310798189819 -1.74683437333733 -1.68639271557156
 1  2.57385908610861  0.14565748414841 -2.02731475127513
 1  4.22824204850485 -1.37910591679168  0.27722009820982
 1  4.06226716301630  1.59031012731273 -2.25421876417642
 1  5.57709100750075  2.29716410661066 -1.62558691329133
 1  5.61248657145715  1.00341067126713 -2.88803010231023
 1  6.53943696699670  1.49009523722372  0.40430792849285
 1  6.32128547654765 -0.23512676157616  0.90177118421842
 1  7.38730247234724 -1.05689676137614 -1.60345447414741
 1  7.53182471347135  0.84394127062706 -1.76815696259626
 1  9.08017411461146  1.20656327282728  0.14225818831883
 1  8.73904172697270 -0.60247860326033  0.89364398299830
 1  10.62834454595460  0.10043480978098 -1.70255408600860
 1  9.28975547194720 -2.15536258055806 -1.79559452065207
 1  11.04073715841584 -2.26643315591559 -1.69833601960196
 1  9.86606408000800 -2.76230785338534 -0.32488457915792
 1  11.36053081528153  0.78711311881188  0.51297326072607
 1  11.31468187788779 -0.89120145824582  1.17754522752275
 1  12.76295203090309 -1.71904876627663 -0.54465280018002
 1  12.58378728472847 -0.34728524952495 -1.67430579437944
 1  14.04679618281828  0.85878913441344  0.45916257675768
 1  14.03694978527853 -0.69984242154215  0.97932310201020
 1  15.31366375847585  0.31422128252825 -1.36540620012001
 1  15.96711871287129 -2.22519924582458  0.16568897129713
 1  14.71436896869687 -2.28631682528253 -1.32083980438044
 1  16.59905796439644 -1.95666959555956 -1.30834294309431
 1  16.08440365006501  1.26602567526753  0.70433385438544
 1  16.61749345134514 -0.19672606830683  1.43489642134213
 1  18.26926611851185 -0.39660662446245 -0.27424343194319
 1  17.82731281248125  0.99980123862386 -1.05732921682168
 1  18.35131381418142  2.35721762136214  0.81450655155516
 1  18.77338361576157  0.87300091139114  1.64045039663966
 1  20.73342340904090  0.43440987678768 -0.08756100570057
 1  19.65317215051505  3.22801178607861 -0.98288855835584
 1  21.30451656555656  2.08938481638164 -1.42703395739574
 1  19.69577041024102  1.73119452175217 -1.86306672997300
 1  21.15121513681368  1.21872117591759  2.10068951055105
 1  22.12129677017702  2.29386791799180  0.66063032923292
 1  20.85177771037104  2.96170984718472  1.61875780698070

