%nproc=4
%Mem=2GB
# td=(NStates=1) CAM-B3LYP/6-31G(d,p) 

TD

0 1
12 -7.11802347164716  0.54398263896390  0.04102215081508
 6 -4.90349923102310 -2.02339445074507  0.59228486338634
 6 -4.87883719001900  2.75776010331033  1.25050850805080
 6 -9.43898848764876  3.19897229662966 -0.38228956195620
 6 -9.40967199479948 -1.73621379637964 -0.91211932693269
 7 -5.11169395099510  0.37905916641664  0.74984250465046
 6 -4.34241184648465 -0.77271789218922  0.81226312911291
 6 -2.94650561176118 -0.37584285638564  1.24937037823782
 6 -3.02020230943094  1.05372650515052  1.60533333973397
 6 -4.37877596429643  1.43949432983298  1.22113837503750
 6 -2.73085087608761  1.35285177247725  3.18207173327333
 6 -2.01507578847885 -0.65661967206721  0.10805013081308
 6 -0.54112236623662 -0.53874210561056  0.60065864876488
 6  0.52196157455746 -0.66628006010601 -0.68538018981898
 8  0.30969151885189 -1.17858926272627 -1.69808908920892
 8  1.71413843884388 -0.19595450225022 -0.20067428752875
 7 -7.18278588708871  2.54958636593659  0.42240739753975
 6 -6.09894702570257  3.29080003390339  0.82706069006901
 6 -6.46245423512351  4.71688231863186  0.88031579607961
 6 -7.70468106350635  4.88111799849985  0.42914982198220
 6 -8.21414196739674  3.57250754205421  0.10577091629163
 6 -5.64648042924292  5.79276036733673  1.30583710891089
 6 -8.56138535093509  6.03629869786979  0.42244226612661
 6 -8.26769596739674  7.36256234053405  0.11035677337734
 7 -9.02865790149015  0.70251672997300 -0.58870057535754
 6 -9.79689134813481  1.83138382098210 -0.70483560776078
 6 -11.08515325822582  1.44824581498150 -1.25513026262626
 6 -11.14686320702070  0.09347322462246 -1.31834110031003
 6 -9.84430431413141 -0.41035952405241 -1.00165946884688
 6 -12.20410865296530  2.47207948884888 -1.42622315321532
 6 -12.29917996369637 -0.82535359755976 -1.75399057625763
 6 -12.25506183818382 -1.08644252945295 -3.26222432783278
 7 -7.22119837193719 -1.38521788338834 -0.19406252495250
 6 -8.29585480778078 -2.30451639113911 -0.49379718561856
 6 -7.87762543004300 -3.60666484938494 -0.35647407640764
 6 -6.60217573957396 -3.55593990949095  0.18288579647965
 6 -6.23992877107711 -2.17665381988199  0.17726934833483
 6 -8.59483982868287 -4.90506332523252 -0.96359590659066
 6 -5.31569810751075 -4.38853483878388  0.26439493939394
 8 -5.17693905570557 -5.52760541414141  0.17805384018402
 6 -4.24862827282728 -3.40210314441444  0.57135802780278
 6 -3.58586295049505 -3.66686277087709  1.91205238493849
 8 -3.77078073267327 -3.23776700950095  3.03262697799780
 8 -2.67256860476048 -4.62589074157416  1.74987307530753
 6 -2.17242988148815 -5.39316978627863  2.96458779577958
 6  2.86814059065907 -0.41599085678568 -1.21134650955096
 6  4.13826714911491 -0.32244609400940 -0.55785831453145
 6  5.12385599299930  0.51497482198220 -0.88366826702670
 6  5.14652206880688  1.37636217251725 -2.00961805290529
 6  6.47109356695669  0.38349715661566 -0.16224291049105
 6  7.59446718561856 -0.15721760366037 -0.92243191189119
 6  8.88477756015602 -0.07985771927193 -0.13915650985099
 6  10.13841473447345 -0.66832393069307 -0.85297169156916
 6  10.11065825202520 -2.09211854675468 -1.34967662916292
 6  11.40214133123312 -0.41024191479148 -0.04228402970297
 6  12.68581575057506 -0.50968748464846 -0.90099063886389
 6  13.89542523032303 -0.14038080128013  0.08247546054605
 6  15.32579792379238 -0.24889750145014 -0.54012706300630
 6  15.68923302550255 -1.74379716551655 -0.91536881668167
 6  16.45687894189419  0.42517690379038  0.32063124782478
 6  17.68061376567657  0.60870899669967 -0.31123940384038
 6  18.73367876737674  1.21413326012601  0.66230859255926
 6  20.26881456125613  1.29463520812081  0.25832543614361
 6  20.38585881478147  2.35053070107011 -1.03981980338034
 6  21.07010488458846  1.82255662506251  1.42340904250425
 1 -4.10639089758976  3.30755913761376  1.59134365536554
 1 -10.07456120782078  3.97568515241524 -0.64355865846585
 1 -10.04589385118512 -2.46739679437944 -1.20319386688669
 1 -2.43806249694970 -0.94528419211921  2.13183042164216
 1 -2.41147078507851  1.85232372097210  1.05823018951895
 1 -1.81812553585359  1.07176266526653  3.45647586098610
 1 -2.88471325752575  2.43136259285929  3.39589415691569
 1 -3.38352933413341  0.80229459715972  3.90486437093709
 1 -2.17489001590159 -1.44983090349035 -0.67683266926693
 1 -2.45640984318432  0.28113020432043 -0.84391949354935
 1 -0.18901599559956  0.41749967346735  1.23146539843984
 1 -0.15413136683668 -1.28863183858386  1.43725660156016
 1 -5.05700786848685  6.31180635573557  0.53134491669167
 1 -6.23246791709171  6.70373017181718  1.50623531273127
 1 -5.00457368616862  5.52412758415842  2.14792847154716
 1 -9.65292279117912  5.80479341544154  0.49342718721872
 1 -9.15778641904190  7.94830341984198 -0.01924133083308
 1 -7.33436847344734  7.70190075927593 -0.18637310791079
 1 -12.01387680048005  3.38273557885789 -2.04883118151815
 1 -13.08873408690869  2.01189682778278 -1.72410593429343
 1 -12.33019998139814  3.05355844124412 -0.30014151215121
 1 -12.19212174027403 -1.66819921812181 -1.22181238913891
 1 -13.18379438303830 -0.40770458345835 -1.46067342434243
 1 -13.11169163536353 -1.54881612081208 -3.48834183188319
 1 -12.33711388538854 -0.13650237613761 -3.87094466946695
 1 -11.25769911751175 -1.65836878087809 -3.50170928642864
 1 -8.89778067396740 -4.85024787308731 -1.98821640304030
 1 -7.88490219121912 -5.67718782698270 -0.90123435153515
 1 -9.34988715451545 -5.10287707470747 -0.15650390659066
 1 -3.56547667966797 -3.60553213771377 -0.30206685968597
 1 -1.89540063006301 -4.42856123342334  3.65138182518252
 1 -3.05590077747775 -5.96395703810381  3.47136435853585
 1 -1.34917634413441 -6.07728190529053  2.48259496239624
 1  2.81323599469947 -1.31275096499650 -1.92746682298230
 1  2.67050875107511  0.51510442884288 -1.85779779957996
 1  4.25948517281728 -0.98526653285329  0.36344872107211
 1  4.36809774607461  1.56876797309731 -2.62119546184619
 1  5.49614291269127  2.33414780498050 -1.81761611621162
 1  5.94352967576758  1.13443377357736 -2.73237453675367
 1  6.82136515981598  1.44857108480848  0.18936643434343
 1  6.44415776377638  0.01187793889389  0.86025703280328
 1  7.43714745684569 -1.33466453815382 -1.10885501420142
 1  7.55754728572857  0.48485536203620 -1.81263141004100
 1  9.17311340854085  1.02590520702070 -0.07056309380938
 1  8.75158298109811 -0.58785714111411  0.87318193679368
 1  10.18821053255326 -0.08080331403140 -1.84697852845285
 1  9.13843033943394 -2.20969801410141 -1.87025198639864
 1  10.92614569926993 -2.38391490409041 -2.10078626462646
 1  10.05973344694469 -2.66609823242324 -0.36951904260426
 1  11.48849361156116  0.62022643014301  0.11623358675868
 1  11.40252066176618 -1.17775011311131  0.71004847784779
 1  12.67713344904490 -1.40245710711071 -1.39513784868487
 1  12.67663656965697  0.40411989098910 -1.59591795559556
 1  13.66647815101510  0.77712096759676  0.48356501700170
 1  14.00595668596860 -0.68963140044004  1.10345551525153
 1  15.21487387948795  0.35178503890389 -1.43686334583458
 1  15.71274327532753 -2.12371909780978  0.14252665506551
 1  15.03905143694369 -2.27685587918792 -1.44311203160316
 1  16.71592965156516 -1.63007693629363 -1.40364247304731
 1  16.07373258295830  1.26885595829583  0.59441286228623
 1  16.69776147814781 -0.19081547724772  1.25561849354935
 1  18.18722791469147 -0.28270523432343 -0.70247625522552
 1  17.72268234943494  1.45880713921392 -1.27226070997100
 1  18.28266694949495  2.13721562116212  1.19278437933793
 1  18.46632290969097  0.67606121742174  1.63221957355736
 1  20.66577664436443  0.31112754855486 -0.06426867646765
 1  20.17915474877488  3.34594357925793 -0.74285455495550
 1  21.35536165006501  2.35573145104510 -1.45362661666167
 1  19.90104093729373  2.16635803810381 -2.01822224552455
 1  20.95814582988299  1.03553285708571  2.23625306690669
 1  22.08005264576458  2.05698422962296  1.26319058525853
 1  20.63199573217322  2.90962463866387  1.80737666886689

