%nproc=4
%Mem=2GB
# td=(NStates=1) CAM-B3LYP/6-31G(d,p) 

TD

0 1
12 -7.19634130343034  0.62019025972597  0.13162121072107
 6 -4.74782366346635 -1.91949406070607  0.49959559445945
 6 -4.83877318361836  2.92139646694669  1.10851430863086
 6 -9.45572016081608  3.01508390779078 -0.29208054105411
 6 -9.53837486508651 -1.93011318631863 -0.83319143414341
 7 -5.09577235883588  0.44628588908891  0.75632315271527
 6 -4.27557516281628 -0.66965758615862  0.82817472027203
 6 -2.86029699089909 -0.31380665276528  1.12781822302230
 6 -3.03610389958996  1.11369250175018  1.67222002840284
 6 -4.34331241794179  1.54128450885089  1.11704796599660
 6 -3.02602039303930  1.19791627892789  3.13443696979698
 6 -1.95452973387339 -0.55309932003200  0.01466079187919
 6 -0.45692394639464 -0.46887511891189  0.49103768666867
 6  0.48393777217722 -0.58626205830583 -0.60640229202920
 8  0.25016556625663 -0.95920732453245 -1.71510079037904
 8  1.79864688968897 -0.41158606540654 -0.21204542464246
 7 -7.14907251575158  2.63210461776178  0.31440659745975
 6 -6.13431056205621  3.39388034193419  0.77687567156716
 6 -6.52951094079408  4.77010764116412  0.76422418691869
 6 -7.86763735913591  4.85746563326333  0.39536644364436
 6 -8.20761131433143  3.40349064036404  0.09728006720672
 6 -5.65722150335033  5.82471356265627  1.37890441564156
 6 -8.71632084448445  5.91730679867987  0.20203022492249
 6 -8.27462666046605  7.23502958725873  0.11105684338434
 7 -9.15576061176118  0.53537001530153 -0.51620332563256
 6 -9.90536219521952  1.74346502910291 -0.62958808300830
 6 -11.19005374827483  1.40379136953695 -1.02738748834883
 6 -11.19903842454245  0.00065394269427 -1.21862112831283
 6 -9.99880976467647 -0.52016050415041 -0.83410271317132
 6 -12.35155339743974  2.26822910381038 -1.35323585448545
 6 -12.25226527222722 -0.87992905510551 -1.81195637283728
 6 -12.21730806280628 -1.14625851105110 -3.22214031943194
 7 -7.27280353245324 -1.40825018661866 -0.06060917961796
 6 -8.23335855815582 -2.27199313881388 -0.48133593949395
 6 -7.77448511601160 -3.60808499139914 -0.43644207320732
 6 -6.41276679867987 -3.52957727322732 -0.15034752685269
 6 -6.15354013221322 -2.15017117161716  0.13812543394339
 6 -8.61160150485049 -4.72917573647365 -0.79917946494649
 6 -5.28567510521052 -4.34782076737674  0.13099159905991
 8 -5.05437679947995 -5.59731238483848 -0.09350331553155
 6 -4.12919632963296 -3.31388432253225  0.52955384738474
 6 -3.57425178937894 -3.61030711531153  1.88371955165517
 8 -3.75550920552055 -3.03789702250225  2.91469518481848
 8 -2.67763911181118 -4.65832398489849  1.71353944194419
 6 -2.11796443494349 -5.26478694799480  2.85044638163816
 6  2.87875165176518 -0.56225548324832 -1.11390676557656
 6  4.16995031743174 -0.23287713711371 -0.45465799449945
 6  5.11385499289929  0.66842016651665 -0.81852175237524
 6  5.13488090469047  1.53037757405741 -2.05165225632563
 6  6.43448990659066  0.66250505740574 -0.04459114531453
 6  7.64436217511751  0.04881299939994 -0.77377704640464
 6  8.96614569696970  0.14962522902290 -0.03330592479248
 6  10.14439533253325 -0.39980707900790 -0.83484987938794
 6  9.99610679687969 -1.93137247214721 -1.24704636613661
 6  11.40363148024803 -0.32672356295630  0.06680687938794
 6  12.68062523152315 -0.63648016391639 -0.61910245004500
 6  13.93646933473347 -0.14386114931493  0.13807102010201
 6  15.34534987898790 -0.35293790549055 -0.48397144744474
 6  15.67434153635364 -1.83580636643664 -0.91598887868787
 6  16.38991224522452  0.18873325942594  0.51774095879588
 6  17.76447215151515  0.50366849264927 -0.32314059395940
 6  18.91284668416842  1.04591643844384  0.67740010171017
 6  20.30985866566657  1.17441318591859  0.06484608820882
 6  20.21583181208121  2.03249889788979 -1.18953477487749
 6  21.27898577267727  1.80408477787779  1.19196589818982
 1 -3.99300955945595  3.66657503920392  1.31066558755876
 1 -10.28624237593760  3.58325590949095 -0.45732003460346
 1 -10.17507676947695 -2.76163621832183 -1.16679022652265
 1 -2.73267195789579 -0.93457312101210  2.09205644424442
 1 -2.45859549754976  1.64994348294830  1.12488685518552
 1 -1.95902962626263  1.06378186718672  3.54526473987399
 1 -3.42842762896290  2.16972642924292  3.76745131263126
 1 -3.69687066826683  0.56659102680268  3.81097498199820
 1 -2.05782830973097 -1.39188510891089 -0.46660164616462
 1 -1.98754295649565  0.41081317261726 -0.72321742334233
 1 -0.33441053505351  0.47750567406741  1.10487273917392
 1 -0.17369332303230 -1.29753272867287  1.41053392929293
 1 -5.11177334503450  6.50125530063006  0.60467224942494
 1 -6.16647131743174  6.43039283808381  1.90818550775077
 1 -4.76213944274427  5.30029520092009  1.86997067576758
 1 -9.61363886278628  5.77992092819282  0.34321216571657
 1 -9.13117375777578  7.99291788128813  0.08381897519752
 1 -7.13182821942194  7.58464903410341  0.03247877727773
 1 -12.00617603040304  2.97718502380238 -2.22911921032103
 1 -13.21898711221122  1.68563420152015 -1.60463398709871
 1 -12.61816877827783  2.99182226762676 -0.61657315531553
 1 -12.11053358145815 -1.73252565076508 -1.10104031193119
 1 -13.22810881448145 -0.65004881788179 -1.46971432843284
 1 -13.13616408260826 -1.43542478167817 -3.63585658335834
 1 -12.14046422042204 -0.18425715161516 -3.81824939993999
 1 -11.27397074467447 -1.55097804180418 -3.46351546704670
 1 -8.85454635053505 -4.76254910321032 -1.78833641504150
 1 -8.00944464546455 -5.60823093129313 -0.61843607170717
 1 -9.52853501930193 -4.77644443144314 -0.19814807100710
 1 -3.18568870087009 -3.62115369986999 -0.34208086108611
 1 -1.52902399239924 -4.59064744204420  3.52166885388539
 1 -2.82548773617362 -5.52562320472047  3.41979920202020
 1 -1.46884831133113 -6.04493867096710  2.35910261316132
 1  2.99954462556256 -1.64163385328533 -1.57769184548455
 1  2.39463116331633  0.07242016041604 -2.04214623442344
 1  4.37328655295530 -0.84600260646065  0.39062143834383
 1  4.04232516881688  1.48090918721872 -2.44661800410041
 1  5.15293859225923  2.71316570677068 -1.79025337993799
 1  5.86431175397540  1.08977930813081 -2.79181048034804
 1  6.53324634793479  1.69269549724973  0.18083558125813
 1  6.18566191419142  0.31110786188619  0.98827983508351
 1  7.13711745384538 -1.04349542124212 -0.96248037673767
 1  7.97228875987599  0.49847672417242 -1.70447059395940
 1  9.14763086028603  1.28690130663066  0.30110407290729
 1  8.78031585438544 -0.49005736113611  0.96394101270127
 1  10.36417812931293  0.07482224852485 -1.73499733033303
 1  8.78602509890989 -2.32688973327333 -1.44488945014501
 1  10.59210229492949 -2.22560907350735 -1.97332351835183
 1  10.41651912551255 -2.51709333193319 -0.33834592529253
 1  11.36474123632363  0.59518392589259  0.53100506390639
 1  11.21821223092309 -0.95131746984698  0.83044051705170
 1  12.81176691239124 -1.63736059745975 -0.73452178707871
 1  12.84675358135814  0.00069954895490 -1.58843720752075
 1  13.81790329352935  1.07709096459646  0.30083674417442
 1  13.98860495079508 -0.59012144944494  1.15045021472147
 1  15.38374076617662  0.35765562596260 -1.33620327982798
 1  15.79384138513852 -2.18391511741174  0.11513391579158
 1  14.80519805160516 -2.15860405400540 -1.63534125452545
 1  16.61103916251625 -1.86918084668467 -1.50938304710471
 1  16.06845205490549  1.05984505720572  1.06590001100110
 1  16.61058276027603 -0.58373476917692  1.26429936163616
 1  18.20046923882389 -0.26804376817682 -1.01854786238624
 1  17.50907098829883  1.11981323982398 -1.00066355025503
 1  18.77108579137914  1.96114801440144  0.99629473037304
 1  19.01752803020302  0.22698630993099  1.49015536713671
 1  20.64623469016902  0.05239167496750 -0.08258050765076
 1  20.00639747304731  3.17385637053705 -0.85812608210821
 1  21.29401551545154  1.98195407330733 -1.64309556355636
 1  19.32288312151215  1.67668907120712 -1.83919434273427
 1  21.18374839013902  0.95409471327133  2.00522996459646
 1  22.15102974347435  1.90452898409841  1.08109237543754
 1  20.64457699029903  2.69538321452145  1.49700563176318

