%nproc=4
%Mem=2GB
# td=(NStates=1) CAM-B3LYP/6-31G(d,p) 

TD

0 1
12 -7.14940660996100  0.53695193589359  0.06778482708271
 6 -4.79886876797680 -1.92080419171917  0.43786942184218
 6 -4.81269057535754  2.95090941824182  1.20515397259726
 6 -9.50061465026503  3.09374177357736 -0.23292462546255
 6 -9.48950997859786 -1.76859703470347 -0.88499661466147
 7 -5.11497427902790  0.41892315281528  0.86134365476548
 6 -4.35653325862586 -0.68276889728973  0.89731163396340
 6 -2.93274423562356 -0.30176544864486  1.28163360456046
 6 -2.96309659885989  1.08752988548855  1.74964777117712
 6 -4.36027411411141  1.56845722612261  1.19917617881788
 6 -3.03729152015201  1.20307679497950  3.31209473557356
 6 -2.01754603550355 -0.58917292739274  0.04466379217922
 6 -0.49787804180418 -0.22126035743574  0.43582216511651
 6  0.56959633803380 -0.51106453855386 -0.57443909570957
 8  0.24617516721672 -0.80040144394439 -1.78833811411141
 8  1.82961998699870 -0.45449035583558 -0.15809002910291
 7 -7.11632924142414  2.52790419771977  0.39500465726573
 6 -6.13645077607761  3.31066202010201  0.81057904190419
 6 -6.53602159185919  4.78150878127813  0.86442420692069
 6 -7.79333992939294  4.77677756445645  0.35571247824782
 6 -8.25270582378238  3.40797108840884  0.16657699689969
 6 -5.64878065926593  5.81260235153515  1.32272879807981
 6 -8.76762597499750  5.92020708870887  0.39988000990099
 6 -8.38891808960896  7.21709779407941  0.11498723642364
 7 -9.13872890859086  0.65827230553055 -0.46683838913891
 6 -9.83570522952295  1.79585026762676 -0.53184830903090
 6 -11.25739048194820  1.46275726612661 -1.13052780238024
 6 -11.19689821052105  0.02503638093809 -1.38141740794079
 6 -9.83863374707471 -0.51755024312431 -0.96078538143814
 6 -12.44523276537654  2.44654693559356 -1.34797532843284
 6 -12.32228227392739 -0.81333239543954 -1.79944512171217
 6 -12.22340867286729 -1.19328321352135 -3.29865797119712
 7 -7.21999825192519 -1.35612497409741 -0.02904602330233
 6 -8.21732695499550 -2.25047098659866 -0.49795760166017
 6 -7.78441610911091 -3.55008919181918 -0.59320774977498
 6 -6.40080560256026 -3.57241155665567 -0.15484797689769
 6 -6.18026280448045 -2.20868702320232  0.09177079847985
 6 -8.56273661836184 -4.79546236513651 -0.84757430443044
 6 -5.25540207790779 -4.33345933123312  0.28233673357336
 8 -4.96203756555656 -5.49533218681868  0.23617965276528
 6 -4.17337074707471 -3.26655959005901  0.55843673567357
 6 -3.53103746794679 -3.66577266186619  1.85880706040604
 8 -3.88939259385939 -3.24727796059606  2.98798251355135
 8 -2.61714306220622 -4.58791694419442  1.67241532953295
 6 -1.92693533203320 -5.09811028032803  2.84212554955496
 6  2.79750352695270 -0.53146240394039 -1.21963733863386
 6  4.13268659105911 -0.36775062446245 -0.58254078277828
 6  5.13886749414942  0.43146647114711 -1.05145504570457
 6  4.98706612321232  1.29511404770477 -2.28430552165217
 6  6.40742720032003  0.53796260316032 -0.36997368356836
 6  7.68269600850085  0.00142826092609 -1.11492116081608
 6  8.97304638703870 -0.15050478397840 -0.23263585778578
 6  10.29249014201420 -0.54409150745075 -1.01397779217922
 6  10.08495568176818 -2.08342767766777 -1.35221688318832
 6  11.38134925202520 -0.25939683028303 -0.14973477477748
 6  12.82691986098610 -0.70634715061506 -0.63171371117112
 6  13.94575026282628 -0.25672243544354  0.21260847384738
 6  15.38620396439644 -0.33106571827183 -0.45294834513451
 6  15.75297940014002 -1.72123490929093 -0.81677895769577
 6  16.45192844684468  0.33702808890889  0.59974915961596
 6  17.67834353865387  0.50477860366037 -0.07243552345235
 6  18.82260766026603  1.19795164196420  0.81512387408741
 6  20.16363404320432  1.27398314291429  0.21584118771877
 6  20.30027025592559  2.00680632863286 -1.17921374277428
 6  21.14444231833183  1.94492886228623  1.33524022562256
 1 -4.23418367686769  3.75163354505451  1.30736525752575
 1 -10.20814456615662  3.97606519041904 -0.08570287288729
 1 -10.40019928172817 -2.43879393409341 -1.08905245274527
 1 -2.67864655535554 -0.92517218091809  2.15147238583858
 1 -2.27028666666667  1.81486997559756  1.18750311681168
 1 -2.00548427172717  1.02594808380838  3.60204041744174
 1 -3.25094988118812  2.19803926052605  3.73372794029403
 1 -3.78048903010301  0.74326869456946  3.80889477397740
 1 -2.18713124002400 -1.63690961136114 -0.11828681468147
 1 -2.25079928212821 -0.02905081378138 -0.95035013661366
 1 -0.36714380838084  0.82383030653065  0.64592684458446
 1 -0.24261021472147 -0.73500647604761  1.56262913881388
 1 -4.99070123782378  6.10089526462646  0.46926870907091
 1 -6.18640331063106  6.78677847664767  1.49536422562256
 1 -4.93049627842784  5.54922009340934  2.23955763446345
 1 -9.82420991989199  5.76590952705271  0.58234607910791
 1 -9.04448508890889  8.02359094859486  0.04930552385239
 1 -7.30819585618562  7.64783535273527 -0.02064653525352
 1 -12.04010942374238  3.09704701000100 -2.23521982038204
 1 -13.21939715321532  1.82244788288829 -1.73463698739874
 1 -12.87866482788279  3.10758384378438 -0.54359585758576
 1 -12.35883841194119 -1.86217861606161 -1.14254446234624
 1 -13.34586058965897 -0.49201301430143 -1.37351470847085
 1 -13.24286475267527 -1.60386162536254 -3.77156015371537
 1 -11.85750592459246 -0.39981870777078 -3.92767034203420
 1 -11.39792313991399 -1.88434137813781 -3.53884299979998
 1 -8.84113500940094 -4.80249309760976 -2.00178776017602
 1 -8.01340504150415 -5.66845695389539 -0.40663489158916
 1 -9.75975814161416 -4.82032881988199 -0.40493875007501
 1 -3.31106123812381 -3.41364294879488 -0.44356100910091
 1 -1.18959004900490 -4.52266064336434  3.54136082308231
 1 -2.68117330473047 -5.44934557695770  3.78186540864086
 1 -1.35786721322132 -5.89792396949695  2.41766846974698
 1  2.26029070017002 -1.56045573547355 -1.77294137043704
 1  2.66761846204620  0.37781069946995 -2.00820284008401
 1  4.45032425672567 -0.96146415261526  0.31840421662166
 1  3.89936087238724  1.64047514381438 -2.38986232853285
 1  5.76343964236424  2.13908829902990 -2.13545790039004
 1  5.39350467326733  0.62047237743774 -3.30643194249425
 1  6.77895091839184  1.43272950065006  0.04961245894589
 1  6.35061840984098 -0.00198344724472  0.62768377547755
 1  7.36617035913591 -1.09561063276328 -1.23445757445745
 1  7.77798932993299  0.56493336983698 -1.97236738363836
 1  9.00434653185319  0.89845246174617  0.30676463896390
 1  8.78776659945995 -0.84616297169717  0.58741335993599
 1  10.31167287878788  0.11826659295930 -1.83116694729473
 1  9.26208270467047 -2.33413045734573 -2.01769673087309
 1  10.99633271797180 -2.31142765536554 -1.78499468546855
 1  9.60237771137114 -2.54685630823082 -0.27747983868387
 1  11.51725648784879  0.73999840734073  0.12098406180618
 1  11.34886529622962 -0.71741407950795  0.78398587158716
 1  13.02134787048705 -1.78074493589359 -0.87411574647465
 1  12.98029693569357 -0.06284680568057 -1.61363972777278
 1  13.79322082528253  0.71663491899190  0.48122478297830
 1  14.02441853215321 -1.10085252255226  1.21955712541254
 1  15.22472486458646  0.38218807920792 -1.26617627712771
 1  15.71447344834483 -2.14918164406441  0.03582598499850
 1  15.18142567436744 -2.09506770037004 -1.62926064646465
 1  16.80662872147215 -1.80858478707871 -1.42974508330833
 1  15.85028023772377  1.28730780348035  0.88426184718472
 1  16.37835953795379 -0.38487488318832  1.54665759745975
 1  18.08942813471347 -0.37545450925093 -0.41229723732373
 1  17.50785086628663  0.95717697619762 -0.98378186208621
 1  18.48637732053205  2.12844474407441  1.18611371227123
 1  18.84135041244124  0.67520113141314  1.82583893549355
 1  20.58992905960596  0.31451788758876  0.17558530893089
 1  19.80971780508051  2.91940092499250 -1.27454772427243
 1  21.41293740764077  2.16552243014301 -1.45411666566657
 1  19.75237607080708  1.38581998429843 -1.96051647494749
 1  21.10390040534054  1.47973727752775  2.47022646424642
 1  22.22630727122712  1.70777930913091  0.81855612181218
 1  21.10249278187819  3.11412508870887  1.42412834403440

