%nproc=4
%Mem=2GB
# td=(NStates=1) CAM-B3LYP/6-31G(d,p) 

TD

0 1
12 -7.23681535083508  0.58389663036304  0.27203525212521
 6 -4.86074495559556 -1.91983409470947  0.56369200410041
 6 -4.82757206350635  2.81272559985999  1.15424888208821
 6 -9.42203679247925  3.03655605500550 -0.22425375837584
 6 -9.52889391699170 -1.75460563556356 -0.82294040904090
 7 -5.16882966456646  0.51086234673467  0.83724124452445
 6 -4.32725033033303 -0.68530915131513  0.96782868566857
 6 -2.95691665286529 -0.48485375747575  1.34402984418442
 6 -3.03260354955496  1.01260239273927  1.76908971537154
 6 -4.43632171887189  1.51011139153915  1.27762402360236
 6 -2.98676646764676  1.20228671597160  3.26164969106911
 6 -2.03167744864486 -0.74469847994799  0.16905623142314
 6 -0.45387364136414 -0.45662389378938  0.43783236613661
 6  0.36456583498350 -0.66768020012001 -0.52211386318632
 8  0.07837838753875 -1.00452185598560 -1.67052633293329
 8  1.76531355635564 -0.37277218401840 -0.33500772087209
 7 -7.02576018451845  2.72170357765777  0.28133329012901
 6 -6.08203533453345  3.41827278117812  0.83829181318132
 6 -6.42069005870587  4.85047567796780  0.78877664216422
 6 -7.67697829322932  4.91158104480448  0.34855176217622
 6 -8.15593614681468  3.48733902520252  0.11927226642664
 6 -5.50448622982298  5.90290138143814  1.43328985418542
 6 -8.62109132153215  5.98391345934593  0.24455447734773
 6 -8.18858805660566  7.23108919321932 -0.01914617691769
 7 -9.10433546924692  0.69558603690369 -0.40750245554555
 6 -9.92766442544254  1.79992067466747 -0.58797392159216
 6 -11.14598934183418  1.46632762316232 -1.19001375097510
 6 -11.22109062976298  0.09396327362736 -1.29161842804280
 6 -9.91080096379638 -0.37383587168717 -0.81618092099210
 6 -12.29908815091509  2.47584986588659 -1.54759529042904
 6 -12.35164521022102 -0.66842790499050 -1.89634481168117
 6 -12.18194452645265 -1.00192407760776 -3.33881198659866
 7 -7.23883013511351 -1.37662702430243 -0.01641476017602
 6 -8.25606082838284 -2.25755169466947 -0.43660146604660
 6 -7.81882955045505 -3.63322750565056 -0.48135656465647
 6 -6.53405892789279 -3.61517583308331 -0.02499499159916
 6 -6.20842562076208 -2.21639779427943  0.19337095849585
 6 -8.69854019871987 -4.75248806770677 -0.95227477447745
 6 -5.27545408310831 -4.41995798109811  0.24359285918592
 8 -5.07738910071007 -5.57336999059906  0.18423445824582
 6 -4.14009741974197 -3.37548048214821  0.60866175817582
 6 -3.45594995919592 -3.66074215881588  1.88558973867387
 8 -3.46291994659466 -3.13249648244824  3.01401511681168
 8 -2.67543889178918 -4.82242039453945  1.71175926392639
 6 -1.92646528502850 -5.28862933223322  2.85289662666267
 6  2.74379815641564 -0.69803906160616 -1.26723209810981
 6  4.03976729912991 -0.48266211561156 -0.68435096379638
 6  5.06240984838484  0.26925024952495 -1.21484138433843
 6  5.02389980658066  1.10896543284328 -2.40084717581758
 6  6.39118557615762  0.38615742264226 -0.41513820002000
 6  7.60022776167617 -0.21342322422242 -0.96649631833183
 6  8.86234531693169 -0.16478621212121 -0.15294788898890
 6  10.12468336133613 -0.47690478877888 -1.02822921732173
 6  10.10552773897390 -1.85521485638564 -1.60373203470347
 6  11.36915803290329 -0.26128701930193 -0.00309011031103
 6  12.80568773777378 -0.41836835273527 -0.73312385218522
 6  13.98758444624463 -0.11759852305231  0.22558977197720
 6  15.32649799379938 -0.19380199189919 -0.56576962726273
 6  15.77026112831283 -1.59470225602560 -0.73300057985799
 6  16.42063531753175  0.42427681378138  0.37662684738474
 6  17.78730443474348  0.65922404820482 -0.20398867876788
 6  18.77034243374338  1.30814266106611  0.73702606430643
 6  20.22159983978398  1.38505425002500  0.40043964756476
 6  20.33376360526053  2.20222587058706 -0.92550837223722
 6  21.10007788188819  1.74282865226523  1.49125582718272
 1 -3.88422868136814  3.37433581528153  1.40739526052605
 1 -9.93691744344434  3.94236182008201 -0.52652695529553
 1 -10.28463772557256 -2.31645169986999 -0.93967751525153
 1 -2.81106979767977 -1.02110177387739  2.31021826042604
 1 -2.25000463846385  1.62918140674067  1.30059442594259
 1 -2.07068079137914  0.79149463846385  3.59976018941894
 1 -2.69031381758176  2.39643910051005  3.39472403990399
 1 -3.88864984618462  0.89885425312531  3.81925581008101
 1 -1.92132465936594 -1.61227714811481 -0.28654364036404
 1 -2.06578078027803 -0.01023893259326 -0.75840094169417
 1 -0.37279437343734  0.66330425392539  0.78047029892989
 1 -0.49195514921492 -1.17767074247425  1.38945182108211
 1 -4.71049321702170  6.39783495859586  0.72790457265727
 1 -5.96814148444845  6.83625342414241  1.76633132233223
 1 -4.77718094689469  5.24217938933893  2.33859753845385
 1 -9.55414291319132  5.80225316141614  0.48029587408741
 1 -8.80840148054805  7.93563215271527 -0.12486189288929
 1 -7.07944298089809  7.45573614281428 -0.28143261386139
 1 -11.95596100890089  2.89927723302330 -2.49504580298030
 1 -13.06072128562856  1.99226486458646 -1.77171069476948
 1 -12.38977593899390  2.96065915131513 -0.59523102110211
 1 -12.31045357345734 -1.57071947014701 -1.46643685158516
 1 -13.32092809640964 -0.14983879687969 -1.88568592559256
 1 -13.08134860106010 -1.59365060426043 -3.59052204990499
 1 -12.06158633263327  0.10289156325633 -3.99899747474748
 1 -11.24359770737074 -1.73334627862786 -3.53640275577558
 1 -9.03973486938694 -4.61174402270227 -1.87265484688469
 1 -8.22767646864687 -5.76212632083208 -1.03347757585759
 1 -9.50370253605360 -4.87005379237924 -0.13360161636164
 1 -3.38442857485749 -3.43035461996200 -0.08628528152815
 1 -1.28981007100710 -4.65760413771377  3.38152483948395
 1 -2.56248143554355 -5.70582122452245  3.46985420752075
 1 -1.26706813331333 -6.14301847894790  2.45478218111811
 1  2.53709838093809 -1.86558624852485 -1.47251132743274
 1  2.59735143534353 -0.35180226182618 -2.41573359315932
 1  4.22720194449445 -0.96484449064906  0.13071544774477
 1  4.14593552985299  1.24302539883988 -3.06929027132713
 1  5.40120341874187  2.20820521072107 -2.37842219681968
 1  5.75635095789579  0.57452778297830 -3.12276357565757
 1  6.49270229352935  1.44590081778178 -0.03084558685869
 1  6.09767311531153 -0.11984523342334  0.49965097219722
 1  7.49495323742374 -1.34935600730073 -1.21926605530553
 1  7.90015154615462  0.18340521702170 -2.02190233713371
 1  9.09536563376338  1.00468308480848  0.14351831433143
 1  8.69763758655866 -0.69931828722872  0.69412403100310
 1  10.17019873137314  0.39448421472147 -1.74385821642164
 1  9.38317481388139 -1.84383142744274 -2.45455041624162
 1  10.96464954965496 -2.12939945254525 -2.16373255925593
 1  9.97675514911491 -2.80464208680868 -0.80341243194319
 1  11.23007776997700  0.81761616911691  0.24760672407241
 1  11.28496890659066 -0.88989132723272  0.82352982598260
 1  12.89162489818982 -1.46934379577958 -1.03780211511151
 1  12.98395730173017  0.18825830483048 -1.58506687048705
 1  13.75953745694569  1.12481573707371  0.49961662216222
 1  13.90534662496250 -0.96364880218022  1.01284645434543
 1  15.29712210431043  0.49820968136814 -1.49485914541454
 1  16.01899390039004 -2.18535526142614  0.21461386378638
 1  14.98914644644464 -1.97992618621862 -1.50818853925393
 1  16.64370242884289 -1.53444737333733 -1.46253836263626
 1  15.91033624332433  1.33382245494549  0.66660008100810
 1  16.55036673867387 -0.40866726242624  1.26460939263926
 1  18.38428762066207 -0.27301426522652 -0.55174118171817
 1  17.64325440664066  1.31745300380038 -1.12422590649065
 1  18.38991767456746  2.25273717331733  0.98247334823482
 1  18.50557683508351  0.63480709200920  1.55903225482548
 1  20.34267433413341  0.49693612941294  0.07834558495850
 1  20.10168700200020  3.14676366126613 -0.54217448694870
 1  21.29583569746975  1.81498737663766 -1.40414166816682
 1  19.56670750395039  1.86473787608761 -1.65622604590459
 1  20.67675769106911  1.25642494629463  2.55108455005501
 1  22.15666030653065  1.35351388258826  1.30212447864787
 1  21.15817835043504  2.88833250945095  1.60273620482048

