%nproc=4
%Mem=2GB
# td=(NStates=1) CAM-B3LYP/6-31G(d,p) 

TD

0 1
12 -7.16606827612761  0.55758399909991  0.13852190079008
 6 -4.84734361546155 -1.94561667296730  0.54984061896190
 6 -4.79052835913591  2.75673000030003  1.09269272647265
 6 -9.44562915171517  3.08753115251525 -0.32898423142314
 6 -9.52975400300030 -1.70100027502750 -0.87765588058806
 7 -5.06805958755876  0.41327258775878  0.67123464386439
 6 -4.38167577287729 -0.76663728412841  0.79930183298330
 6 -2.92830379157916 -0.44864013611361  1.27195263646365
 6 -3.04665495469547  0.97237837033703  1.74495730213021
 6 -4.37785587228723  1.40739111951195  1.13301956315632
 6 -3.02232002300230  1.19168565586559  3.19455298139814
 6 -1.87668194909491 -0.59048305840584  0.05384471027103
 6 -0.46459471347135 -0.47958619001900  0.53627221012101
 6  0.55706508490849 -0.60372380448045 -0.58354000580058
 8  0.27765831553155 -0.97743914771477 -1.74175345564556
 8  1.77367439243924 -0.23394830163016 -0.23413763386339
 7 -7.18304591309131  2.60190159745975  0.41874703150315
 6 -6.10923805480548  3.32442339623962  0.80667865186519
 6 -6.36343433313331  4.74969559996000  0.87971573607361
 6 -7.69813040844084  4.81780166686669  0.39692659965997
 6 -8.17080763396340  3.56894718601860  0.16072641184118
 6 -5.62765854705470  5.90236132743274  1.40461698689869
 6 -8.60155936833683  5.99280434843484  0.26646666856686
 6 -8.31437063486349  7.32087817211721 -0.01473573587359
 7 -9.21070610631063  0.68359483778378 -0.51174287958796
 6 -9.95240689968997  1.85026570917092 -0.56759188338834
 6 -11.26180092299230  1.50863185358536 -1.08356310591059
 6 -11.22161068176818  0.11982585988599 -1.30802006820682
 6 -9.89635951965196 -0.37842633073307 -0.90163946684668
 6 -12.36832507460746  2.40008228912891 -1.32209274017402
 6 -12.40853089878988 -0.83172423462346 -1.67045222242224
 6 -12.40056638863886 -1.14650853605361 -3.18358646404640
 7 -7.22821907400740 -1.41827118871887 -0.15956907560756
 6 -8.26393161546155 -2.18537447694770 -0.55508331423142
 6 -7.82720038753875 -3.58541272417242 -0.59119754875488
 6 -6.49395491749175 -3.54411872737274 -0.09477196929693
 6 -6.14844962316232 -2.23388954345435  0.10869249064906
 6 -8.66002634733473 -4.86011883078308 -0.83039258625863
 6 -5.35782231993199 -4.37517350265027  0.19602810271027
 8 -5.12966432823282 -5.55440809440944  0.13339937473747
 6 -4.09344275427543 -3.33710664476448  0.63294418641864
 6 -3.49414377857786 -3.65896198079808  1.89852103180318
 8 -3.61221487608761 -3.07745097789779  2.94704842014201
 8 -2.66302765066507 -4.65118327082708  1.73293138113811
 6 -1.81977461596160 -5.06302677197720  2.91688302530253
 6  2.87999177577758 -0.59368862656266 -1.20510588548855
 6  4.20391371377138 -0.45094894429443 -0.61128365706571
 6  5.14222783018302  0.47258058255826 -0.92721262146215
 6  5.02282969956996  1.22095663196320 -2.28660575167517
 6  6.47096355395540  0.51895070197020 -0.31089777597760
 6  7.59820755965597 -0.15653753565357 -1.04018368706871
 6  8.95997507990799 -0.08628836233623 -0.18336093029303
 6  10.22641353435344 -0.56465356365637 -0.90130652505251
 6  10.08664585078508 -2.03489282418242 -1.29746140764076
 6  11.46720783788379 -0.35003589418942 -0.05755555685569
 6  12.78679584858486 -0.57301381728173 -0.82348288808881
 6  13.90194588238824 -0.15853261646165  0.16614382738274
 6  15.34070941494149 -0.21050366206621 -0.46731978227823
 6  15.57045114731473 -1.70677346314631 -0.83443072287229
 6  16.35377863186319  0.27633201930193  0.49265845054505
 6  17.80584628892889  0.54846297209721 -0.11929020892089
 6  18.74838023752375  1.21553340014001  0.83851621332133
 6  20.18366604640464  1.38787453205321  0.27225682928293
 6  20.17356758565856  2.32467811581158 -0.92819864126413
 6  21.19970784488449  1.80366473587359  1.28814551615162
 1 -4.11586184468447  3.37878626032603  1.88528304930493
 1 -10.04630838253825  3.99039662356236 -0.60061436403640
 1 -10.33133239503950 -2.53973402810281 -1.08586213371337
 1 -2.52397108780878 -1.18846851055106  2.16281351995199
 1 -2.13208284628463  1.73846233483348  1.53867823432343
 1 -2.06555027832783  0.92053754275428  3.60044025742574
 1 -3.26576136233623  2.29168862546255  3.29190375787579
 1 -3.67095807700770  0.49509387708771  3.72659654415442
 1 -1.95176770367037 -1.75365128552855 -0.38635362136214
 1 -2.13228743094309  0.22653474477448 -0.73426852845285
 1 -0.17596469046905  0.50092801630163  1.05734798669867
 1 -0.24264021772177 -1.09411238663866  1.28257113301330
 1 -4.68186035373537  6.10289546464647  0.81993377557756
 1 -6.32534720502050  6.72829262806281  1.70772546174618
 1 -5.15296852565256  5.36977214861486  2.45414909360936
 1 -9.69045654455446  5.81695463156316  0.51713955845585
 1 -8.96600724112411  8.13810239973997  0.10632122542254
 1 -7.22125716231623  7.68854942414241 -0.15360983158316
 1 -12.14032944574457  3.17329463476348 -2.22076837523752
 1 -13.41540675417542  1.95317095519552 -1.52361588528853
 1 -12.63702066346635  3.01032411781178 -0.54688618661866
 1 -12.36435896399640 -1.80893329152915 -1.11548175607561
 1 -13.28768477207721 -0.36842065506551 -1.26053341034103
 1 -13.21382184838484 -1.73606484568457 -3.43596659435944
 1 -12.46675684968497 -0.25972469836984 -3.81700927592759
 1 -11.65791913951395 -1.73927687168717 -3.50431954745475
 1 -8.93788468436844 -4.79079192749275 -1.92685026642664
 1 -7.81239494049405 -5.58178828702870 -0.67843207130713
 1 -9.59196136193619 -5.00606739373937 -0.24238249444945
 1 -3.38160829282928 -3.34641622612261 -0.35066171917192
 1 -1.13366445644564 -4.14161253855386  3.24833152015202
 1 -2.46806199359936 -5.47607825022502  3.52846006810681
 1 -1.20168159465947 -5.81988616571657  2.39348605150515
 1  2.61844651575158 -1.79589927982798 -1.35004908120812
 1  2.84754645484548 -0.10058714031403 -2.09267128692869
 1  4.23814303860386 -1.04405241144114  0.18498087428743
 1  4.08689962626263  1.29320041634163 -2.74355769806981
 1  5.15756905530553  2.31075546574657 -2.18239259385939
 1  5.87053237603760  0.72031236143614 -2.84590588988899
 1  6.81388441174117  1.38295452315232  0.07561505920592
 1  6.34061740974097  0.03041979307931  0.76788779587959
 1  7.31675541764176 -1.40789186088609 -0.94851898059806
 1  8.04285581658166  0.22168904540454 -2.08081822872287
 1  9.08447454465446  1.00437305380538  0.01845580808081
 1  8.81125894869487 -0.63782213761376  0.74601922052205
 1  10.19662137363736 -0.00136537023702 -1.88411224182418
 1  9.07187368376838 -2.23790083438344 -1.99629459065907
 1  10.83835692039204 -2.45453196579658 -1.80462664866487
 1  10.05480295389539 -2.74081570417042 -0.50581267196720
 1  11.54783954615461  0.87337174467447  0.04501646504650
 1  11.44656506620662 -0.95445778387839  1.02310978397840
 1  12.85784151985198 -1.60658752015202 -1.08485682058206
 1  12.72501140714071 -0.23879440044004 -1.88249661346135
 1  13.76037754095410  0.78389164466447  0.55884254475448
 1  14.13777986828683 -0.89104154145415  0.89352452215222
 1  15.34740713281328  0.36597645804580 -1.36999665916592
 1  15.53798579957996 -2.34193091899190  0.01492389478948
 1  14.83800133193319 -2.22383057665767 -1.65718343874387
 1  16.63407146574658 -1.87600152875288 -1.20753286208621
 1  16.19060427012701  1.39996906960696  0.86350977197720
 1  16.49617131913191 -0.24234062976298  1.32364529622962
 1  18.05863505540554 -0.43921088488849 -0.65054106170617
 1  17.54410449164916  0.97559881838184 -1.30562404630463
 1  18.39448813161316  2.29596149574957  1.20249535043504
 1  18.88927520492049  0.78368197949795  1.75165151675168
 1  20.51827189388939  0.22599903570357 -0.15869811941194
 1  19.58824565786579  3.26206519141914 -0.68008827832783
 1  21.03068918281828  2.60385626352635 -1.17453870787079
 1  19.65969680288029  1.72455385768577 -1.69329975327533
 1  21.08681869716972  1.13373267706771  2.32846228782878
 1  22.22593723422342  1.70182871407141  0.93865813201320
 1  21.00686321892189  2.74655833203320  1.52157808900890

