%nproc=4
%Mem=2GB
# td=(NStates=1) CAM-B3LYP/6-31G(d,p) 

TD

0 1
12 -7.13081475077508  0.54441268196820  0.02679072767277
 6 -4.89146802790279 -2.00485259655966  0.52484811971197
 6 -4.76018532483248  2.79930425772577  1.05465892309231
 6 -9.41850643944394  3.05656805620562 -0.39337067006701
 6 -9.57909893749375 -1.82005218021802 -0.81766988198820
 7 -5.05263804540454  0.37937919841984  0.70068758915892
 6 -4.39201680698070 -0.72732335273527  0.80521242404240
 6 -2.87174813601360 -0.36634190629063  1.10775621682168
 6 -3.06867715691569  1.04763589608961  1.53339614601460
 6 -4.39972805950595  1.47914829522952  1.06611287248725
 6 -2.74849264026403  1.26309279657966  3.06948047414741
 6 -1.90646492739274 -0.70198420852085  0.04364369016902
 6 -0.54824307830783 -0.49630786218622  0.58300688358836
 6  0.48353773217322 -0.72141557365737 -0.52633428522852
 8  0.30028057775778 -1.03741514531453 -1.73149242954295
 8  1.76363338833883 -0.52612751955196 -0.14279849994999
 7 -7.15117272577258  2.60145155245525  0.41563672047205
 6 -6.13766089708971  3.33906486038604  0.84836282028203
 6 -6.43937192689269  4.73464409480948  0.84528229272927
 6 -7.78250884628463  4.76968685538554  0.36119302630263
 6 -8.22338289148915  3.40692098339834  0.10817115631563
 6 -5.62494827602760  5.85548663996400  1.27985451065107
 6 -8.67343655605561  5.97326239423942  0.22837285918592
 6 -8.29192839063906  7.29362544684468  0.05469120682068
 7 -9.14165920162016  0.63547002530253 -0.59966167146715
 6 -9.85870752975297  1.80619130173017 -0.74438956315632
 6 -11.19279402230223  1.38315930633063 -1.12823757335734
 6 -11.33016153685369  0.16109998729873 -1.27185645184518
 6 -9.97090697439744 -0.43477196529653 -0.91076037893789
 6 -12.34368261036104  2.42037431833183 -1.10303083398340
 6 -12.43965401110111 -0.69993105530553 -1.67970314751475
 6 -12.37625395739574 -0.88243212841284 -3.19100720612061
 7 -7.19255550765076 -1.45307466906691 -0.17757087578758
 6 -8.30598582088209 -2.32387832733273 -0.47676548244824
 6 -7.76789445694569 -3.68451263416342 -0.46898532753275
 6 -6.45729125112511 -3.57466178167817 -0.02220471257126
 6 -6.13396817501750 -2.19328548304830  0.08411003240324
 6 -8.60818116281628 -4.88378119701970 -0.73123267026703
 6 -5.29852639033903 -4.37732371767177  0.12919141904190
 8 -5.11455281708171 -5.55441809540954  0.24175020982098
 6 -4.20500391039104 -3.33858679277928  0.43665455745575
 6 -3.50709507370737 -3.81475756035604  1.80802198189819
 8 -3.68508216281628 -3.21232446524652  2.91938565386539
 8 -2.71906325422542 -4.75039319181918  1.62850093809381
 6 -2.16161880038004 -5.29442991229123  2.90415175217522
 6  2.94912868946895 -0.46004526222622 -1.13127850275027
 6  4.25060838323832 -0.16552040144014 -0.39324185288529
 6  5.16842044944494  0.72326565106511 -0.87389728992899
 6  5.04304172077208  1.37730226652665 -2.20951804290429
 6  6.46957341494149  0.68220702760276 -0.03049973617362
 6  7.61994973387339  0.16901501960196 -0.71287095579558
 6  8.92418150055006  0.14682494899490 -0.02400499469947
 6  10.13570446344634 -0.39820691899190 -0.78099449384938
 6  9.98761594779478 -1.83196253115312 -1.33634529602960
 6  11.40979209630963 -0.09087997859786  0.11691188988899
 6  12.79042621162116 -0.43119963586359 -0.58614915471547
 6  14.02971865966597 -0.15522228542854  0.24889210221022
 6  15.28964430843084 -0.33506611831183 -0.43542659295930
 6  15.54114821702170 -1.78842162796280 -0.93831111091109
 6  16.44112736673667  0.23426781288129  0.45446463116312
 6  17.81886759105911  0.36320444624462 -0.18502678257826
 6  18.79464486398640  1.15370721752175  0.68814117581758
 6  20.25620330013001  1.15836158075808  0.10799040264026
 6  20.29821004990499  2.03203885188519 -1.18797461886189
 6  21.26281415551555  1.75920028942894  1.19878658025803
 1 -4.06204646314631  3.49546792849285  1.26160068106811
 1 -10.31918567026703  3.75629321322132 -0.39945424802480
 1 -10.36904616641664 -2.57600765546555 -1.24948849634964
 1 -2.60573926462646 -1.06989665336534  1.82189942854285
 1 -2.25829546754676  1.52526101470147  0.97501186768677
 1 -1.70781450475047  0.80596608560856  3.27903811721172
 1 -2.73844863106311  2.47835729232923  3.33553812131213
 1 -3.72926390759076  0.79952432013201  3.52874675917592
 1 -2.03121564846485 -1.76385230563056 -0.29481446744674
 1 -1.91414561676168 -0.13104101280128 -1.07845294689469
 1 -0.34907200120012  0.36204412791279  0.97108936083608
 1 -0.18754470817082 -0.99705268066807  1.46357923382338
 1 -5.22101426912691  6.31331650675068  0.21844362656266
 1 -6.03240791109111  6.62504230303030  1.87241193039304
 1 -4.59922315111511  5.49126429782978  1.69594327302730
 1 -9.72906040494049  5.71145408150815  0.07435528002800
 1 -9.04513515391539  8.05322391189119  0.09328992229223
 1 -7.30384542114211  7.72529309850985  0.13081861126113
 1 -12.33066847964797  3.15849315461546 -1.95471176957696
 1 -13.33658887238724  2.07885352345235 -1.28648217191719
 1 -12.45243220462046  2.71797488288829 -0.06125762376238
 1 -12.33463599169917 -1.50268266646665 -1.28872908080808
 1 -13.43954995859586 -0.29433324632463 -1.20604796179618
 1 -12.96277674387439 -1.81190242944294 -3.47281027872787
 1 -12.45146532053205  0.17648892299230 -3.58313588858886
 1 -11.17248059565957 -1.25744868886889 -3.45528464396440
 1 -9.32236313221322 -4.70104295259526 -1.59214679607961
 1 -8.02394609560956 -5.67139724792479 -0.89991421952195
 1 -9.34217638343834 -4.94533132013201  0.25189693349335
 1 -3.38478861086109 -3.47645923042304 -0.40448710171017
 1 -1.73964505450545 -4.43576195349535  3.45875256225622
 1 -2.93097828522852 -5.79794043644364  3.50509773187319
 1 -1.40926235273527 -6.09992416951695  2.76878358125813
 1  2.84561923302330 -1.41323101300130 -1.80694477077708
 1  2.61222292249225  0.34455737413741 -1.80035205500550
 1  4.44984420872087 -0.76235424162416  0.43861623782378
 1  3.97843878017802  1.38805990229023 -2.76309965226523
 1  5.39520281868187  2.32752714291429 -2.05392974757476
 1  5.80417574037404  0.97006733693369 -3.07967926722672
 1  6.43205622892289  1.80556678437844  0.31973947164716
 1  6.41347469546955  0.03264001510151  0.78424943204320
 1  7.52731647374737 -0.96715778747875 -1.21979610831083
 1  7.84075560656066  0.70991786828683 -1.69788993589359
 1  9.13219931713171  1.00557317381738  0.28157211971197
 1  8.98458628142814 -0.38063641904190  0.99016363496350
 1  10.14511622312231  0.16630139643964 -1.76493032363236
 1  9.26126262266227 -2.12298934323432 -2.00877583878388
 1  10.81056414111411 -2.19230574317432 -1.81013719971997
 1  9.87700517411741 -2.62585420802080 -0.57782987368737
 1  11.36706146834683  1.03260766826683  0.42832479587959
 1  11.47349775947595 -0.53669600770077  1.06470394339434
 1  12.80059579527953 -1.30288715011501 -1.01450978587859
 1  12.88179708570857  0.30700017901790 -1.39133749754976
 1  13.64378588178818  0.85554881038104  0.61084774527453
 1  14.00470656095610 -0.91552398969897  1.12125729542954
 1  15.47054944704471  0.40289014941494 -1.38988864836484
 1  15.86032803380338 -2.49344607050705 -0.11522912051205
 1  14.64468200000000 -1.95901409500950 -1.61681940234023
 1  16.49296735533553 -1.85703963256326 -1.67495960476048
 1  16.06430163986398  1.25269434213421  0.87538095909591
 1  16.42125382738274 -0.26183257895790  1.38162109380938
 1  18.11323051495150 -0.74021098489849 -0.49954596219622
 1  17.63123320452045  0.91229248774878 -1.16155963986399
 1  18.37714639743974  2.01631353095310  0.86838193909391
 1  18.70090636803680  0.62174578587859  1.64049040064006
 1  20.71834190089009  0.22317875367537 -0.24729697929793
 1  20.05020185348535  2.96455544044404 -0.96302657215722
 1  21.38785489938994  2.00464634253425 -1.55131638563856
 1  19.76715754895489  1.64950635293529 -2.08033845714571
 1  21.65987600290029  1.09323862766277  1.92184162576258
 1  22.13100774127413  1.87984651585159  0.55969023522352
 1  20.67240977357736  2.73658733493349  1.56065199639964

