%nproc=4
%Mem=2GB
# td=(NStates=1) CAM-B3LYP/6-31G(d,p) 

TD

0 1
12 -7.11442311161116  0.55060330103010  0.11527957655766
 6 -4.77898677977798 -1.94320643194319  0.56699233413341
 6 -4.84418372467247  2.82390671797180  1.29370282748275
 6 -9.38504309310931  3.00260265966597 -0.29639097209721
 6 -9.45626665426543 -1.76760693569357 -0.81907002200220
 7 -4.96987976957696  0.44076533703370  0.72414993539354
 6 -4.33130073537354 -0.64925554595460  0.81715361816182
 6 -2.83475443664366 -0.39543481558156  1.22998844004400
 6 -2.90361065026503  1.24515564806481  1.65345815221522
 6 -4.32196028272827  1.51752213261326  1.17612387358736
 6 -2.80282807380738  1.40778726602660  3.16069959605961
 6 -1.94243852475248 -0.57771178127813  0.08671799759976
 6 -0.47481573557356 -0.43050128152815  0.39834841774177
 6  0.39165854425443 -0.66142957505751 -0.74953660546055
 8  0.08221877157716 -1.06052745654565 -1.84071335163516
 8  1.78198522352235 -0.40113502030203 -0.49384360446045
 7 -7.09344695319532  2.55499690699070  0.49324448124812
 6 -6.10797792879288  3.32580353425343  0.85682366636664
 6 -6.44412240194019  4.74752538293829  0.98668643314331
 6 -7.79289988538854  4.83926381308131  0.47233414041404
 6 -8.19003955715571  3.46229652095210  0.21495183438344
 6 -5.46531231243124  5.84497558885889  1.29558608380838
 6 -8.59863907630763  5.99256432443244  0.39422944484448
 6 -8.25383458125813  7.28607469176918  0.19263500120012
 7 -9.10473550925093  0.66054253255326 -0.53107481278128
 6 -9.84341600060006  1.77463814641464 -0.61746687088709
 6 -11.14315905880588  1.38958994939494 -1.17983273287329
 6 -11.17701622232223  0.10172404970497 -1.23310257645765
 6 -9.84740462416242 -0.37132562066207 -0.95129443234323
 6 -12.32498074017402  2.27852013291329 -1.43736426732673
 6 -12.35656570227023 -0.78161922412241 -1.71489666686669
 6 -12.20623695569557 -1.09407329252925 -3.23373147854785
 7 -7.17186343844384 -1.46220558215822 -0.17274039273927
 6 -8.24035925822582 -2.27222316181618 -0.39725753165317
 6 -7.74473214071407 -3.61143532643264 -0.45470389938994
 6 -6.42044756675668 -3.56955127062706 -0.12306479857986
 6 -6.09020379857986 -2.17474362886289  0.11988360976098
 6 -8.73598394309431 -4.70679349824983 -0.79961950895090
 6 -5.23269980768077 -4.24743072837284  0.14794329422942
 8 -5.08365972777278 -5.48933158675868  0.25336137093709
 6 -4.07969137913791 -3.28209114321432  0.60994188618862
 6 -3.39557392159216 -3.57609369396940  1.91128230793079
 8 -3.56723037763776 -3.08734196699670  2.97441115641564
 8 -2.47116846474647 -4.69788794129413  1.70127821582158
 6 -1.90143278177818 -5.06505697499750  2.93340467746775
 6  2.71261503810381 -0.68068732643264 -1.42275765066507
 6  4.01970529292929 -0.46128997839784 -0.70479300800080
 6  5.04425803320332  0.25770909540954 -1.10010991119112
 6  4.98568598519852  1.24936947324732 -2.28748583968397
 6  6.32875933353335  0.31301010791079 -0.26542322852285
 6  7.50331807070707 -0.22032391429143 -0.99107877657766
 6  8.78630771317132 -0.00873060656066 -0.22306490069007
 6  10.03460435343534 -0.49916701500150 -1.00316671107111
 6  9.94549173537354 -1.97807714261426 -1.47104876637664
 6  11.28400951805181 -0.20883177377738 -0.11185098639864
 6  12.69885705470547 -0.34922143804380 -0.74173471327133
 6  13.85215090289029 -0.06929369256926  0.14581179417942
 6  15.31690703470347 -0.33824643634363 -0.39913296359636
 6  15.60734483668367 -1.78645143094309 -0.76151343114311
 6  16.33136639063906  0.27434182028203  0.64337352205221
 6  17.75125082938294  0.35096322212221 -0.02980126002600
 6  18.73232863236324  1.17420926772677  0.86173853555356
 6  20.06781446124613  1.38706445104510  0.28186779037904
 6  20.13933416231623  2.29137478547855 -0.93598942034203
 6  21.16912478657866  1.88757312671267  1.37581428302830
 1 -4.10722098059806  3.67098548024802  1.51698621962196
 1 -10.07710146184619  3.73498108200820 -0.39558386098610
 1 -10.19249851165116 -2.64154420912091 -1.13289683718372
 1 -2.50374906560656 -1.02469213291329  2.06932417101710
 1 -1.99680931893189  1.66281477007701  1.13851821832183
 1 -1.67922164546455  1.05884137313731  3.33430364376438
 1 -2.94854964116412  2.41022047864787  3.51054562206221
 1 -3.49438041924192  0.68648301600160  3.48294217871787
 1 -2.08196072297230 -1.50556647704771 -0.41065605160516
 1 -2.14242844504451  0.05275736703670 -0.64207930953095
 1 -0.25935302930293  0.55819374287429  0.99964221612161
 1 -0.35696164986499 -1.39691266666667  1.07589046494649
 1 -4.83927609530953  6.09104427952795  0.49835161736174
 1 -6.12054672497250  6.68661846064606  1.54408909810981
 1 -4.69802303110311  5.57971314271427  2.05990966966697
 1 -9.70878837773777  5.81902483858386  0.66300414491449
 1 -9.03620426082608  8.06580517001700  0.25873646694670
 1 -7.16497153375338  7.45203577277728  0.01344687408741
 1 -11.86129154195420  3.12515982128213 -2.11194749314931
 1 -13.22572778627863  2.00715635373537 -2.08869239293929
 1 -12.52755971737174  2.82523560896090 -0.49975147314732
 1 -12.58887141524152 -1.70193259145915 -1.30283049094910
 1 -13.32356836043604 -0.27765157815782 -1.49289664666467
 1 -13.21815228142814 -1.42980421962196 -3.71003400110011
 1 -11.98942911691169 -0.14016274217422 -3.79457703270327
 1 -11.51482483008301 -1.95504844884488 -3.48146726222622
 1 -8.71840273617362 -4.64406725502550 -1.87524510591059
 1 -8.18317201820182 -5.53774388258826 -0.49094332243224
 1 -9.63544571037104 -4.74302108910891 -0.24378263446345
 1 -3.38191832383238 -3.39389097359736 -0.48130478347835
 1 -1.60783187318732 -4.14494287158716  3.76091277827783
 1 -2.63063825122512 -5.52197283968397  3.64853207530753
 1 -1.03693512001200 -5.84610878797880  2.90703740664066
 1  2.62277694879488 -1.67746743664366 -1.79080315661566
 1  2.40034173437344  0.06216913531353 -2.28647066686669
 1  4.17904712901290 -1.19988799499950  0.21343371957196
 1  3.98801973827383  1.28168926522652 -2.66952029432943
 1  5.28394169256926  2.28335272547255 -2.15426978157816
 1  5.75686100890089  0.88145847604760 -3.16486778607861
 1  6.47134015731573  1.26495272297230 -0.03988649094909
 1  6.06077942594259 -0.23212646154615  0.85453646074607
 1  7.35032877497750 -1.13792486418642 -1.27086121482148
 1  7.62735426642664  0.14661153765377 -1.84951509840984
 1  9.02073817101710  1.10461307780778  0.09535349784979
 1  8.86916473927393 -0.77393574897490  0.66615123372337
 1  10.17256896839684  0.05934070037004 -1.87396122672267
 1  9.15966246264627 -1.90459750405041 -2.34855981718172
 1  10.93672675737574 -2.55500201280128 -1.69829601560156
 1  9.52401987558756 -2.48511013361336 -0.70063215391539
 1  11.13466822902290  0.76709111661166  0.35626759015902
 1  11.40009041874187 -0.98627096519652  0.75850332333233
 1  12.76244197989799 -1.45629249064907 -1.03973230813081
 1  12.78469737573757  0.34389386838684 -1.70569893369337
 1  13.90553205640564  0.93010626612661  0.56260292079208
 1  13.76190228052805 -0.84812725002500  1.06642181188119
 1  15.53497588968897  0.23570343074307 -1.29448910841084
 1  15.62033403440344 -2.54108083398340  0.11115351775178
 1  14.82266979877988 -2.18236643024302 -1.58399612001200
 1  16.64778283688369 -1.64453838243824 -1.30879298809881
 1  15.95517072677268  1.14411348404840  1.01179460046005
 1  16.32913461546155 -0.51852824852485  1.50580351205121
 1  18.21316050795080 -0.67542450625063  0.06016000840084
 1  17.76910699189919  0.82379363786379 -1.00173365726573
 1  18.32689137193719  2.15647754735474  1.30718581948195
 1  18.96387266466646  0.71476508780878  1.81489784138414
 1  20.62106217291729  0.46139257505751 -0.05376762636264
 1  19.84595142844285  3.40046903180318 -0.77471774127413
 1  21.01105721962196  2.27986386428643 -1.38443969796980
 1  19.41933276647665  1.99123052535254 -1.51413183648365
 1  20.97730774607461  1.21959126292629  2.17195663726373
 1  22.25629026952695  1.84485301650165  1.00052431863186
 1  20.81871440404040  2.95786946314631  1.75547147834783

