%nproc=4
%Mem=2GB
# td=(NStates=1) CAM-B3LYP/6-31G(d,p) 

TD

0 1
12 -7.20204187348735  0.49823806450645  0.13580162876288
 6 -4.88291717281728 -1.97072918421842  0.63280891579158
 6 -4.94233353965397  2.92536686398640  1.27626108330833
 6 -9.48154274307431  3.05783818321832 -0.28344967796780
 6 -9.55779680728073 -1.74640481548155 -0.94846296129613
 7 -5.16300908250825  0.45179644014401  0.74765228562856
 6 -4.38453605890589 -0.74324494489449  0.77441934473447
 6 -2.94470543174317 -0.39061433353335  1.07894333553355
 6 -3.06047633683368  1.02424355685569  1.60525333173317
 6 -4.48850693739374  1.46096647704770  1.26525278647865
 6 -2.94514230523052  1.16259274657466  3.10214374047405
 6 -1.95830011091109 -0.51647565766577 -0.03734440864086
 6 -0.46699495349535 -0.39623785518552  0.39367795069507
 6  0.57167654605461 -0.63522695479548 -0.67129878167817
 8  0.26894744444444 -0.98149955375538 -1.81896117641764
 8  1.85090211521152 -0.35289019581958 -0.24490871097110
 7 -7.13040064856486  2.57109851715171  0.37385254205421
 6 -6.12538966996700  3.31167212111211  0.83979196319632
 6 -6.50941893159316  4.80428105850585  0.76294405890589
 6 -7.82191278667867  4.78874876157616  0.47312421942194
 6 -8.22496304950495  3.44740503180318  0.19387972717272
 6 -5.61701748294829  5.92416350765077  1.28347487268727
 6 -8.65640485288529  5.99948501650165  0.40494051595159
 6 -8.24477367516752  7.19248533283328  0.15167090479048
 7 -9.16256129182918  0.64964144244424 -0.38063976927693
 6 -9.87175883488349  1.77149783238324 -0.60365548974897
 6 -11.18033277617762  1.51752274267427 -0.99373412301230
 6 -11.26458497919792  0.07724160146015 -1.27276654285429
 6 -9.96205608930893 -0.36636512461246 -0.90832013491349
 6 -12.29574781688169  2.46148842974297 -1.19857038793879
 6 -12.42915296099610 -0.77445850805081 -1.88238341554155
 6 -12.34294062606261 -1.06735062026203 -3.32642074747475
 7 -7.23672992509251 -1.34451381298130 -0.14255737443744
 6 -8.34275949824983 -2.17721366086609 -0.52242004790479
 6 -7.90238790629063 -3.61762594549455 -0.54455288428843
 6 -6.55515103710371 -3.58508282378238 -0.16308880098010
 6 -6.22823760196020 -2.20552670717072  0.09580120152015
 6 -8.67614795949595 -4.80422324122412 -0.91141068806881
 6 -5.36764330203020 -4.38405439073907  0.14126262616262
 8 -5.10046140794079 -5.60171282488249  0.09555559035904
 6 -4.20537394739474 -3.34869780388039  0.55170606260626
 6 -3.66616098029803 -3.57091317591759  1.95353653335334
 8 -3.91008466306631 -3.09524275707571  2.93463717901790
 8 -2.64852620052005 -4.56560471297130  1.80605869386939
 6 -2.26353899239924 -5.18654912421242  3.00238157515752
 6  2.90409418601860 -0.58643790149015 -1.15941131603160
 6  4.23210653305331 -0.46600044944494 -0.53971650035004
 6  5.21034464186419  0.36930025452545 -0.90952085228523
 6  5.09782719931993  1.20329486578658 -2.24357144824482
 6  6.52912937053705  0.40360916781678 -0.10434712091209
 6  7.75908364726473 -0.13707558945895 -0.91881154985499
 6  9.01644072647265 -0.19162889638964 -0.11913450765076
 6  10.27838873187319 -0.71733883218322 -0.80670706510651
 6  10.15074226042604 -2.15345468036804 -1.29763142464246
 6  11.55388650575058 -0.44039493009301  0.03498369706971
 6  12.89037620662066 -0.50501701760176 -0.63591413121312
 6  13.98952464026403 -0.03337010021002  0.16571378437844
 6  15.47647299129913 -0.22958557025703 -0.45288833913391
 6  15.75172927512751 -1.72963574937494 -0.85297257705771
 6  16.49334258825882  0.50905529162916  0.43338252295230
 6  17.85896160046005  0.59922804860486 -0.30824910481048
 6  18.80417581708171  1.31089293609361  0.74864722642264
 6  20.30407808760876  1.44144988958896  0.22211181478148
 6  20.42111234013401  2.09821546954695 -1.16892271367137
 6  21.21135901000100  1.97247161656166  1.31872857445745
 1 -3.90233049154915  3.50535891759176  1.48920344134413
 1 -10.31024477617762  3.81101868576858 -0.65995029762976
 1 -10.21804106590659 -2.54399445414541 -1.24705825332533
 1 -2.83949263996400 -1.10214987868787  1.85789302790279
 1 -2.45577521552155  1.70847933653365  1.15347971447145
 1 -1.88851257455746  0.79675516451645  3.43517373077308
 1 -3.17909269546955  2.19926938353835  3.54455902340234
 1 -3.70379136033603  0.68097246494649  3.66527041154115
 1 -1.84585711261126 -1.47895381578158 -0.45965095109511
 1 -2.28704290649065  0.36882897419742 -0.75578067966797
 1 -0.17839493349335  0.47657558105811  0.93604585648565
 1 -0.30747670137014 -1.33664664006401  1.03542641854185
 1 -4.99234140184018  6.11216639173917  0.38960074227423
 1 -6.20471514181418  6.89592939173917  1.41618630783078
 1 -5.21931516031603  5.84451962336234  2.15656933563356
 1 -9.54553205210521  5.75167810391039  0.72623046754675
 1 -9.04256489688969  7.99131772127213  0.24363495679568
 1 -7.22127716431643  7.41122169136914 -0.17377184778478
 1 -12.13553896669667  3.22042934823482 -1.99157545594559
 1 -13.15856106960696  1.77177281538154 -1.37289081278128
 1 -12.43511047244725  2.91961504690469 -0.27021851985199
 1 -12.26181870997100 -1.71893429162916 -1.45116532443244
 1 -13.39701570517052 -0.30217403040304 -1.50784814181418
 1 -13.20648111431143 -1.77728896809681 -3.54385738343834
 1 -12.43706388038804  0.02829410351035 -3.90025760076008
 1 -11.43083643124312 -1.62464540854085 -3.53080219571957
 1 -9.18787968386839 -4.98395124342434 -2.08389597099710
 1 -8.06531023202320 -5.63026313451345 -0.59601382948295
 1 -9.45401756755675 -5.15148193519352 -0.24873312951295
 1 -3.45533566556656 -3.46102768726873 -0.21852850585059
 1 -1.73155424542454 -4.41919029632963  3.80917760476048
 1 -3.19219440684068 -5.47338798119812  3.68541576367637
 1 -1.57452887938794 -6.00789496659666  2.69743644654465
 1  2.69656432753275 -1.55826551645165 -1.54309838613861
 1  2.69309100930093  0.07753067146715 -2.06507852765277
 1  4.30575980028003 -1.12230023622362  0.16066844304430
 1  3.97061799809981  1.10468156445645 -2.56808015031503
 1  5.44259755815582  2.26831122132213 -2.13901825642564
 1  6.01657698049805  0.77273760396040 -3.06460776007601
 1  6.68834185748575  1.41239746744674  0.21058855655566
 1  6.38468181618162 -0.17811106000600  0.69552055915592
 1  7.48008175027503 -1.16736780848085 -1.17579170787079
 1  7.67446897789779  0.43272014851485 -1.85642578947895
 1  9.35531162836284  0.65259787628763  0.16514047654765
 1  8.86292411521152 -0.84820317571757  0.88470308890889
 1  10.22262397389739 -0.06184141784178 -1.80092392299230
 1  9.12178867526753 -2.38973601790179 -1.70568552975298
 1  11.03739682438244 -2.13410992359236 -2.00398658465847
 1  10.04573204680468 -2.80416203880388 -0.37077916861686
 1  11.61324608680868  0.74334874237424  0.24271623502350
 1  11.72576298599860 -1.19712205030503  0.80248772177218
 1  13.00446618231823 -1.48696555795580 -1.05148348324832
 1  13.00107901390139  0.03365284428443 -1.55883424722472
 1  14.06081758495850  0.97127038253825  0.42633929442944
 1  14.01950804110411 -0.54780721802180  1.10915608530853
 1  15.38627101920192  0.47626748714871 -1.56835649514951
 1  15.65123712471247 -2.40751747764776  0.02736513891389
 1  15.14306183798380 -1.96655484908491 -1.50274799519952
 1  16.79454751335134 -1.95354928352835 -1.18211031983198
 1  16.33406861656166  1.43101217391739  0.70162358335834
 1  16.50634233623363 -0.08329472517252  1.27444037573757
 1  18.19402859475948 -0.25592255605561 -0.71891789938994
 1  17.55193527472747  1.25949720822082 -1.12229571347135
 1  18.49563824662466  2.39367126672667  0.87443254415442
 1  18.62555883328333  0.73927753905391  1.68741509310931
 1  20.57589765646565  0.36282271807181 -0.01765401500150
 1  20.17438427172717  3.11664064896490 -0.88441871137114
 1  21.52995910981098  2.10039591749175 -1.68624987898790
 1  19.69563039623962  1.65137653995400 -1.85444586788679
 1  20.92542255755576  1.61026032983298  2.25816525812581
 1  22.38322296279628  1.74298282948295  1.05230949714971
 1  21.18102063466347  3.32200587678768  1.38821475267527

