%nproc=4
%Mem=2GB
# td=(NStates=1) CAM-B3LYP/6-31G(d,p) 

TD

0 1
12 -7.22091376067607  0.61123936463646  0.00117816641664
 6 -4.79488836993699 -1.90376248754876  0.50147578247825
 6 -4.94580388668867  2.74628895619562  1.17955141234123
 6 -9.54632922172217  2.99781218061806 -0.18887022002200
 6 -9.52376340394039 -1.71657183218322 -0.92885100010001
 7 -5.07873065466547  0.42973423392339  0.61779930033003
 6 -4.38955656095610 -0.67167778817882  0.80102200500050
 6 -2.88465942714271 -0.33250852295229  1.16728216941694
 6 -2.96217650685069  1.10082121462146  1.67509031543154
 6 -4.46737482418242  1.48282866326633  1.15276153735374
 6 -2.90535832683268  1.39185567286729  3.19314284038404
 6 -1.82928720962096 -0.65116912701270  0.10198952475248
 6 -0.41249950395040 -0.50374860626063  0.67016559945995
 6  0.57845722412241 -0.74288772087209 -0.50645229702970
 8  0.35991654135414 -1.06515791959196 -1.67691697199720
 8  1.86397342234223 -0.45217012381238 -0.11410563066307
 7 -7.14404201270127  2.57726913421342  0.29617477427743
 6 -6.13983111411141  3.31034198809881  0.82298028202820
 6 -6.45871386108611  4.77719835023502  0.85086285078508
 6 -7.75432602800280  4.80994088078808  0.38304521152115
 6 -8.25771632483248  3.42203249454945  0.19164950415042
 6 -5.58685446664666  5.79687077837784  1.45732225742574
 6 -8.65879509190919  5.97315238323832  0.39798982088209
 6 -8.29683888168817  7.17636372067207  0.07092282998300
 7 -9.13198823452345  0.64224070237024 -0.60307201250125
 6 -9.97144880388039  1.74808549114911 -0.65230035423542
 6 -11.27589233213321  1.41276226662666 -1.07279202880288
 6 -11.33363188388839  0.06769064636464 -1.22492175837584
 6 -9.90015989968997 -0.45302379047905 -0.90831013391339
 6 -12.40686892899290  2.40990327122712 -1.31293182408241
 6 -12.46030607630763 -0.78536959915992 -1.73712889008901
 6 -12.41166749874987 -1.04693857905791 -3.17244534993499
 7 -7.24634088618862 -1.34666402800280 -0.25022814151415
 6 -8.25453067536754 -2.25750168966897 -0.62982078797880
 6 -7.77322498999900 -3.52174635753575 -0.55993442244224
 6 -6.45977149914992 -3.47767208270827 -0.07519001110111
 6 -6.17307208540854 -2.14423057755776  0.09142076347635
 6 -8.46779712441244 -4.80571339023902 -0.88500804780478
 6 -5.24044058175818 -4.35367135243524  0.10080858075808
 8 -5.07403876567657 -5.52681533513351  0.04010004480448
 6 -4.14892830283028 -3.27442037613761  0.49731062306231
 6 -3.57985234943494 -3.64655073967397  1.87985916561656
 8 -3.75812946754675 -2.97681091389139  2.98940265556556
 8 -2.72301364926493 -4.68787694019402  1.80160824882488
 6 -2.21929456795680 -5.24926539583958  2.97738907590759
 6  2.82522629922992 -0.56041529922992 -1.10212558745875
 6  4.23485680808081 -0.41060490989099 -0.52532506120612
 6  5.13594720212021  0.41270459495950 -0.91507140734073
 6  5.28014543114311  1.10983551985199 -2.18023511461146
 6  6.37827428502850  0.43444225112511 -0.05814250045005
 6  7.63592133103310  0.09156727482748 -1.02112178087809
 6  8.95933501590159  0.00279054555456 -0.11718431263126
 6  10.35778667166717 -0.50301740004000 -0.85125151955196
 6  10.11946913311331 -1.96816615151515 -1.32115377687769
 6  11.42341345844584 -0.19981087168717  0.00746094479448
 6  12.77863503250325 -0.60687720362036 -0.67559809960996
 6  13.99377506530653 -0.11840860406041  0.22293950695070
 6  15.31002634663466 -0.23335594729473 -0.47915096539654
 6  15.69505360756076 -1.71582436823682 -0.88650593039304
 6  16.38090134413441  0.34107849394939  0.46465565026503
 6  17.75900160446045  0.44609273507351 -0.22747102700270
 6  18.76009140864086  1.24087593439344  0.76533889558956
 6  20.24327200700070  1.40370611521152  0.09681928552855
 6  20.31843207210721  2.01333698169817 -1.21255707710771
 6  21.15059293339334  1.90757512691269  1.26598329992999
 1 -4.22654291279128  3.59718810051005  1.59637415841584
 1 -10.27255100680068  3.91587917181718 -0.29321362396240
 1 -10.20717997979798 -2.53551360606061 -1.05794934243424
 1 -2.92224091479148 -0.95583524722472  1.97101434003400
 1 -2.07843748174817  1.59574806340634  0.99107347384738
 1 -2.01610533383338  1.00450593959396  3.58608882228223
 1 -2.99933471967197  2.56919637623762  3.48843341084108
 1 -3.72702368356836  1.00073444114411  3.62985687018702
 1 -2.01692421932193 -1.77930385078508 -0.18202318831883
 1 -2.08628283048305 -0.23448135683568 -0.84159926152615
 1 -0.18693578757876  0.37219514301430  1.25004725662566
 1 -0.18994494819482 -1.31920489588959  1.39732260816082
 1 -4.96902907060706  6.30987616271627  0.70229201140114
 1 -6.09370404070407  6.63129292809281  2.08907359655966
 1 -4.76401963076308  5.39181435283528  2.11738541724172
 1 -9.64448194709471  6.02041497759776  0.89179702420242
 1 -8.88722936333633  8.08710730023002  0.20205079837984
 1 -7.15420045664566  7.20473104230423 -0.29796426702670
 1 -12.31987740054005  2.98001530683068 -2.36850314871487
 1 -13.35050026352635  2.01486712481248 -1.16583010671067
 1 -12.41345830723072  3.09759284468447 -0.41354285228523
 1 -12.77250977907791 -1.64999739793979 -1.27150735863586
 1 -13.43097910151015 -0.29267308030803 -1.88605596259626
 1 -13.18397886408641 -1.73606484568457 -3.37305030273027
 1 -12.31700187418742 -0.24981370727073 -3.83621119611961
 1 -11.59026237383738 -1.76683962796280 -3.56771588708871
 1 -8.50297119301930 -5.02361520982098 -2.04652223362336
 1 -7.92947664866487 -5.78185829402940 -0.69476370447045
 1 -9.64956712251225 -4.91758854585458 -0.44423267946795
 1 -3.29215934793479 -3.47894947944795 -0.28464511751175
 1 -1.53742483248325 -4.59918829612961  3.49847653465347
 1 -2.91387657505751 -5.41338198059806  3.77711493359336
 1 -1.95997742424242 -6.17139131623162  2.65086178907891
 1  2.69701437253725 -1.53293298319832 -1.56423049934993
 1  2.55111681188119  0.19802272067207 -1.92170419021902
 1  4.41383060736074 -1.00615862206221  0.29901227742774
 1  4.29671060736074  1.51143223952395 -2.49389273157316
 1  5.94737803620362  2.15765015521552 -2.26436079067907
 1  5.69821514431443  0.40790112031203 -2.99270056935694
 1  6.67287031033103  1.47681390909091  0.16118361606161
 1  6.58863221122112 -0.08415166406641  0.77011801890189
 1  7.39432317441744 -0.86039711141114 -1.35033916261626
 1  8.07852938393839  0.83843071957196 -1.94060420732073
 1  9.20161625882588  1.17373999049905  0.27191115361536
 1  8.69596741954195 -0.70310866626663  0.64896951555155
 1  10.38154986648665 -0.05836106980698 -1.93039687028703
 1  9.12445894229423 -1.87714475877588 -1.88941390259026
 1  10.77274035873587 -2.41510802340234 -1.89445563156316
 1  9.81131860546055 -2.85409703230323 -0.51634372507251
 1  11.34487925012501  0.86121052855286  0.18650061346135
 1  11.25986639633963 -0.74488682678268  0.89250672367237
 1  12.82596833253325 -1.62805966736674 -0.74019235413541
 1  12.88096700270027 -0.34311483248325 -1.73095145894589
 1  13.86090759395940  1.04545780128013  0.42834949544955
 1  13.93392948324833 -0.55789822712271  1.20426559625963
 1  15.27978037013701  0.47589745014501 -1.29962962246225
 1  15.60557255825583 -2.45694242014201 -0.13063066066607
 1  15.01840937273727 -2.13043123672367 -1.67886560696070
 1  16.52911096969697 -1.69653358195820 -1.49686179497950
 1  16.03286849654965  1.30665973867387  0.92009543054305
 1  16.40889259125913 -0.36985338103810  1.42064499619962
 1  18.10757994989499 -0.65484244804480 -0.39437544514451
 1  17.70203028422842  0.90076133463346 -1.29811329522952
 1  18.39180786358636  2.21542344194419  0.92633773467347
 1  18.77943422082208  0.58989260056006  1.70752710431043
 1  20.47283735043504  0.48174461026103 -0.13411566116612
 1  19.83240007330733  2.94791377627763 -1.05292556205621
 1  21.46039215311531  2.26797267516752 -1.60191144514451
 1  19.83308414161416  1.41434283658366 -1.99171959525953
 1  21.11790180548055  1.29162846664666  2.21001044264426
 1  22.31858649914992  1.97188571977198  0.95336960316032
 1  20.77868040064006  2.78447212341234  1.64752068326833

