%nproc=4
%Mem=2GB
# td=(NStates=1) CAM-B3LYP/6-31G(d,p) 

TD

0 1
12 -7.22731440074007  0.64035227592759  0.19176722532253
 6 -4.85696457755776 -1.90742285358536  0.46561219611961
 6 -4.86642594889489  2.81188551585159  1.15026848404840
 6 -9.52694728352835  2.97981038043804 -0.29721105410541
 6 -9.58488951655166 -1.90415059005901 -0.81531964696470
 7 -5.15410819241924  0.42315357585759  0.65210273067307
 6 -4.36173377867787 -0.69579019941994  0.71824372717272
 6 -2.94188514971497 -0.34700997309731  1.14345978717872
 6 -3.00770105930593  1.13871500400040  1.59330213661366
 6 -4.43792187888789  1.49978035843584  1.07848410961096
 6 -2.89458724972497  1.29917640494049  3.11983550965097
 6 -1.86529080998100 -0.61916592669267 -0.01268194239424
 6 -0.46022427642764 -0.37477570897090  0.51027961086109
 6  0.49804918331833 -0.59799323142314 -0.60540219201920
 8  0.29624017371737 -0.90507191099110 -1.73964324462446
 8  1.76219324432443 -0.26656156295630 -0.09223344344434
 7 -7.27514512301230  2.67194860216022  0.41644680148015
 6 -6.14533166416642  3.39379033293329  0.88801678567857
 6 -6.59496748644865  4.77533816421642  0.92344010851085
 6 -7.89668026342634  4.84250413711371  0.36258316531653
 6 -8.28704925812581  3.48626891819182  0.06233657285729
 6 -5.57399318051805  5.90031112241224  1.37036356155616
 6 -8.72834204660466  5.97798286628663  0.30957097899790
 6 -8.29126832463246  7.33673975827583  0.12524826252625
 7 -9.19607464316432  0.58213469176918 -0.46740844614461
 6 -9.96461812081208  1.73070375297530 -0.63684880908091
 6 -11.24989973287329  1.42693368376838 -1.11411616121612
 6 -11.25329385008501  0.02823670097010 -1.19498876507651
 6 -9.97917780148015 -0.47733622172217 -0.81272057495750
 6 -12.44550279237924  2.36601888278828 -1.23175370627063
 6 -12.44836488218822 -0.84857591979198 -1.67964314151415
 6 -12.21277760976098 -1.46341022622262 -3.09465757115712
 7 -7.25400165226523 -1.39496885848585 -0.01469458815882
 6 -8.25401062336234 -2.31965790529053 -0.48941674757476
 6 -7.82123979147915 -3.64311849474947 -0.47891632063206
 6 -6.53205872787279 -3.61028534403440 -0.08797128922892
 6 -6.22591736993699 -2.17260341484148  0.14500612201220
 6 -8.68159850455045 -4.70727354625463 -0.99807935493549
 6 -5.32630916861686 -4.42202818811881  0.17491599149915
 8 -5.15658702050205 -5.59381203480348  0.13877991279128
 6 -4.13721713171317 -3.33463639773977  0.53486437843784
 6 -3.53959832403240 -3.68879496409641  1.80708188788879
 8 -3.63849750435044 -3.14670790359036  2.86910062536254
 8 -2.46589793769377 -4.55098325082508  1.67185527352735
 6 -1.89642228072807 -5.02620308960896  2.91136247324732
 6  2.85547932453245 -0.37465672337234 -1.20223559845985
 6  4.18474179657966 -0.20791464086409 -0.54961749044904
 6  5.23263687108711  0.42006533103310 -0.99810971117112
 6  5.28785620222022  1.21430596689669 -2.31628871997200
 6  6.49384584218422  0.41895070197020 -0.16801348754875
 6  7.56207394629463 -0.10519240114011 -1.01030069876988
 6  8.96294537693769 -0.09665939943994 -0.18455104930493
 6  10.28745963896390 -0.44078117641764 -1.02648904330433
 6  10.06430361656166 -1.78099743464346 -1.67287894939494
 6  11.52738385548555 -0.24301519211921 -0.11950175147515
 6  12.88200536953695 -0.48029454535454 -0.81016155595560
 6  13.95141082888289 -0.16196295949595  0.22208942194219
 6  15.39689503350335 -0.40740335203520 -0.37396044634463
 6  15.62076617881788 -1.85041782758276 -0.69691697149715
 6  16.38598185218522  0.28975336143614  0.51043022772277
 6  17.80115581988199  0.37691581738174 -0.14568284818482
 6  18.83912931243124  1.11332317911791  0.84863722542254
 6  20.27603528332833  1.22330807540754  0.32067167076708
 6  20.37878810771077  1.96489213721372 -1.04802062346235
 6  21.12716059015902  1.86944131353135  1.40439714131413
 1 -4.09856011451145  3.45689407110711  1.55391991299130
 1 -10.50291404310431  3.68812639653965 -0.40387469006901
 1 -10.33136239803980 -2.63645370007001 -0.83688723622362
 1 -2.58317700840084 -0.93637330103010  2.01942918151815
 1 -2.17177681568157  1.64238272687269  1.06510087658766
 1 -1.70996471977198  0.94772026102610  3.39023923732373
 1 -3.01878666486649  2.41214067066707  3.37510207770777
 1 -3.43032401360136  0.63973834153415  3.56412029652965
 1 -1.98772129902990 -1.60308622902290 -0.39296428242824
 1 -2.08552275447545  0.07700979227923 -0.81477657925793
 1 -0.28773586758676  0.59500742424242  0.88224047594759
 1 -0.27227318101810 -0.86723969936994  1.48880175607561
 1 -4.85178734643464  6.34331950705071  0.60008179037904
 1 -6.03060773107311  6.64880467926793  1.90953564276428
 1 -4.94438766756676  5.43790896229623  2.02234591329133
 1 -9.79027652655265  5.95906884298430  0.23088093259326
 1 -9.01514215461546  8.19089767926793 -0.04017342404241
 1 -7.18082311891189  7.54721529072907  0.15423095249525
 1 -12.18089350215022  3.12301960726073 -2.03986028442844
 1 -13.40614582808281  2.12436807490749 -1.32850637433743
 1 -12.23215017641764  3.13703678907891 -0.32189368736874
 1 -12.68733126122612 -1.58456085428543 -0.71785199309931
 1 -13.22247825142514 -0.10245405840584 -1.65779313631363
 1 -13.32634310051005 -1.89027026622662 -3.49191218891889
 1 -11.99201937593759 -0.59947867376738 -4.08146572157216
 1 -11.38684203180318 -2.30777372137214 -3.07168628412841
 1 -8.86426732263226 -4.76094894319432 -2.18218579998000
 1 -7.77011071207121 -5.54419452765277 -0.65422965106511
 1 -9.65492765856586 -4.67528431543154 -0.47199545574557
 1 -3.32842297429743 -3.30800238473847 -0.31434808780878
 1 -1.55121621162116 -4.17210558785879  3.64969165616562
 1 -2.90874606200620 -5.51719236163616  3.44647186928693
 1 -1.40654208070807 -5.74753893099310  2.73941064396440
 1  2.85477014811481 -1.37911760166017 -1.63962803910391
 1  2.68917061726173  0.42374529292929 -1.90253227302730
 1  4.26762598689869 -0.97859586578658  0.40514289048905
 1  4.32779371567157  1.22925402170217 -2.77948129042904
 1  5.68461175957596  2.24384877507751 -2.14675903050305
 1  6.12899822262226  0.77540787098710 -2.94056535583558
 1  6.61712473577358  1.37893412111211  0.02752024972497
 1  6.44969831783178 -0.27422067096710  0.90279128622862
 1  7.63263700580058 -0.96157722942294 -1.40807493619362
 1  7.72214374537454  0.78526540304030 -1.74166431333133
 1  9.08768486568657  0.93437605410541  0.25056901940194
 1  8.71272909570957 -0.75891424682468  0.76017063566357
 1  10.25852756425643  0.29696446274627 -1.70778460906091
 1  9.15479197559756 -2.04396144044404 -2.11963692489249
 1  10.90574365906591 -2.03240975357536 -2.31388757475748
 1  10.01253872747275 -2.35742736533653 -0.73607569826983
 1  11.52490725292529  0.73752816031603  0.42723468686869
 1  11.33730414011401 -0.99533187128713  0.64733220622062
 1  13.11156689238924 -1.56257311871187 -0.96108444334433
 1  13.14238314431443  0.25504498349835 -1.69528789258926
 1  13.74432593579358  1.10702395789579  0.31999866036604
 1  14.01543763406341 -0.51866430373037  1.19419458915892
 1  15.40976336843684  0.30058991939194 -1.22460211971197
 1  15.29584158515852 -2.45250197609761  0.21803420582058
 1  15.13861139293929 -1.92010020362036 -1.69231695209521
 1  16.70264832343235 -2.22836676527653 -0.80322243104310
 1  16.05007021672167  1.24258333103310  0.77344076507651
 1  16.26302800480048 -0.24477087278728  1.52308524022402
 1  18.27312650455046 -0.50304726852685 -0.36672267986799
 1  17.85688576977698  0.74708596709671 -1.12620610451045
 1  18.29938862166216  2.08002990259026  1.04403950485049
 1  18.82001827922792  0.69576318761876  1.87428377997800
 1  20.70081014771477  0.11537797359736  0.16278402880288
 1  20.25730256355636  3.09097808270827 -1.06827709720972
 1  21.29718583248325  1.99580545844584 -1.54892614661466
 1  19.67961879507951  1.73210461276128 -1.86446686998700
 1  21.05653566886689  1.15201450525053  2.28835827742774
 1  22.14517915841584  1.91403993519352  1.03421768796880
 1  20.57825035763576  2.95590926712671  1.53174910611061

