%nproc=4
%Mem=2GB
# td=(NStates=1) CAM-B3LYP/6-31G(d,p) 

TD

0 1
12 -7.19828149744975  0.58146638733873  0.09311736033603
 6 -4.86337521862186 -1.93170528182818  0.35816145104510
 6 -4.77714702100210  2.82038636593659  1.12049550675067
 6 -9.48185277407741  3.02289468886889 -0.25365669866987
 6 -9.54450547814781 -1.80146032103210 -0.88009612461246
 7 -5.13621640324032  0.47783904440444  0.72496001640164
 6 -4.32099970527053 -0.74350497089709  0.80664256705671
 6 -2.93117407860786 -0.45818109020902  1.20688612981298
 6 -3.05001529072907  1.10123125562556  1.57850065646565
 6 -4.32399048574857  1.49492987338734  1.18317457865787
 6 -2.86079387038704  1.33805029232923  3.12161568766877
 6 -1.87563184408441 -0.71832584268427  0.04910423622362
 6 -0.39491774577458 -0.51746997839784  0.47309589248925
 6  0.53798317671767 -0.66045947804780 -0.68008966076608
 8  0.23008355805581 -0.95134653845385 -1.84213349364937
 8  1.81761878687869 -0.49263417021702 -0.33643786388639
 7 -7.11059866836684  2.55977738503850  0.24740989778978
 6 -6.10031716271627  3.32438339223922  0.73014099809981
 6 -6.49458744844484  4.74427505790579  0.84898266276628
 6 -7.76767736313631  4.80618050475048  0.43652055905591
 6 -8.20145069826983  3.39754004530453  0.10072041124112
 6 -5.55923170437044  5.82397348864886  1.34476100130013
 6 -8.66082529492949  6.03901896989699  0.41602162406241
 6 -8.15156435423542  7.30494657895790  0.07760349804981
 7 -9.12701773747375  0.70936741504150 -0.61979368466847
 6 -9.86692835183518  1.78553923652365 -0.65386051025103
 6 -11.25323006590659  1.44954594499450 -1.04585933553355
 6 -11.20783930463046  0.12201607890789 -1.23805307150715
 6 -9.87584746844684 -0.43776226432643 -0.88210751365137
 6 -12.33200144224423  2.46479876077608 -1.09475000590059
 6 -12.32972301800180 -0.83815487768777 -1.60628580578058
 6 -12.43298963096310 -0.88836272147215 -3.21179928532853
 7 -7.21856810891089 -1.39720908250825 -0.08705182388239
 6 -8.25464068636864 -2.31417735723572 -0.41560936683668
 6 -7.78003567106711 -3.64269845274527 -0.56448487748775
 6 -6.48625414741474 -3.58542285778578 -0.07406989908991
 6 -6.18300307850785 -2.11989814431443  0.03453507490749
 6 -8.80793113781378 -4.75780859975998 -0.57602714971497
 6 -5.31498803650365 -4.35435142044204  0.13611211111111
 8 -5.11279264106411 -5.63473612721272  0.10740677547755
 6 -4.16832024202420 -3.23969690379038  0.59588048004800
 6 -3.63965833003300 -3.69917600220022  1.94155533523352
 8 -3.84850850545055 -3.15427866066607  2.98123183848385
 8 -2.77630897879788 -4.77929608210821  1.89379746774677
 6 -2.19522216071607 -5.29795026432643  3.05260659765977
 6  2.88941271787179 -0.69701895959596 -1.28401377627763
 6  4.15857918031803 -0.41750559996000 -0.65456798549855
 6  5.13035664306431  0.42311563606361 -1.06488638883888
 6  5.00878829542954  1.18638317461746 -2.39551664276428
 6  6.52095855345534  0.50649945684568 -0.36268295449545
 6  7.73387112601260 -0.03079496139614 -1.08666833553355
 6  8.93336241864186 -0.07479721322132 -0.18218081228123
 6  10.19465035803580 -0.55863296159616 -0.91584797919792
 6  10.03644083028303 -2.01345067996800 -1.56834849634964
 6  11.38116923402340 -0.38208909950995 -0.04042384368437
 6  12.74798196719672 -0.52070858675868 -0.72727326712671
 6  13.88530421822182  0.07096033283328  0.09816702970297
 6  15.37867321132113 -0.03911652335234 -0.52843589388939
 6  15.77980208240824 -1.51758454425443 -0.84103138293829
 6  16.41577483148315  0.40583496959696  0.37164634933493
 6  17.97391309560956  0.50468859465947 -0.13386166606661
 6  18.76567196669667  1.22687453425343  0.77965032673267
 6  20.19082676247625  1.37309305390539  0.40753035663566
 6  20.48403863276327  1.98617426542654 -0.83267908930893
 6  21.10217809190919  1.92433680308031  1.57991469306931
 1 -4.21165142364236  3.68548693039304  1.36218073907391
 1 -10.07462121382138  3.95895347924793 -0.39170347294729
 1 -10.22108136993699 -2.53673372807281 -1.38065161266127
 1 -2.51361005170517 -1.10751041474147  2.08221546014601
 1 -2.31854149214922  1.79436792539254  1.09843420992099
 1 -1.81041476477648  0.88067355635564  3.40810102350235
 1 -2.92808759495950  2.57319677627763  3.32204677217722
 1 -3.69425040624062  0.83907827552755  3.82892677717772
 1 -1.86463899079908 -1.69569548994900 -0.27556254225423
 1 -1.91708591079108  0.14824691599160 -0.62416751835183
 1 -0.07627472147215  0.53448137163716  1.05550780268027
 1 -0.03855980968097 -1.21142411781178  1.20648352425242
 1 -4.79919208690869  6.10882605770577  0.60230201240124
 1 -6.31297596789679  6.59233903270327  1.67813250245025
 1 -5.03439666846685  5.41240641204120  2.38880255895590
 1 -9.70324782368237  6.04464740084008  0.51485933043304
 1 -8.86813745414541  8.02743133263326  0.11137173047305
 1 -6.97366240284028  7.37621819101910 -0.28175264586459
 1 -12.22656806960696  3.38493579887989 -1.78376467486749
 1 -13.22534774827483  1.97942358045805 -1.33970749444944
 1 -12.52762972437244  2.90058314371437 -0.08093959195920
 1 -12.27191972007201 -1.78495089328933 -1.32902311021102
 1 -13.39601560516052 -0.43677749074907 -1.14267162416242
 1 -13.53839430563056 -1.34342558175818 -3.51859485718572
 1 -12.25461563556356  0.05926720082008 -3.80503807880788
 1 -11.63962731033103 -1.59075201920192 -3.50280939643964
 1 -9.21769266516652 -4.78481132943294 -1.60496807820782
 1 -8.52147584858486 -5.77414752295229 -0.59852408050805
 1 -9.68169033483348 -4.62109889688969  0.36025776957696
 1 -3.41101123312331 -3.39459104360436 -0.07162381538154
 1 -1.29908099809981 -4.65433381068107  3.52549923692369
 1 -2.83553874127413 -5.47354799719972  3.95342256435644
 1 -1.69092051855186 -6.22515669276928  2.84058076097610
 1  2.87543221432143 -1.73842353225323 -1.53273735003500
 1  2.78941064126413 -0.02465954755476 -2.06305832563256
 1  4.36256548084808 -0.99664767096710  0.21837421362136
 1  3.82118305460546  1.32390348664867 -2.29824316661666
 1  5.59363266166617  2.24912930313031 -2.02826718131813
 1  5.53660898369837  0.72189251945195 -3.25072637193719
 1  6.74658768206821  1.52500872857286 -0.14450695299530
 1  6.39825317331733  0.13819057015702  0.82859386648665
 1  7.55997974007401 -1.09175024672467 -1.26132026072607
 1  7.97396892789279  0.56791366786679 -1.94970511741174
 1  8.92319841704170  0.89245186168617  0.20924488698870
 1  8.87557538033803 -0.87642599799980  0.64116873547355
 1  10.40562227372737  0.31879664596460 -1.75630946154615
 1  9.32889938633864 -2.02400944524452 -2.40446540774077
 1  11.01715480018002 -2.22773928652865 -1.93535972197220
 1  9.62231970557056 -2.70474209680968 -0.70625271597160
 1  11.25622038423842  0.65306971447145  0.38656061946195
 1  11.47397780748075 -0.99050138823882  0.83778125112511
 1  12.99822555825583 -1.60935779717972 -0.90552888778878
 1  12.62139104510451 -0.19968048904890 -1.73705206900690
 1  13.79578108130813  0.92859611511151  0.46535319581958
 1  13.92854894519452 -0.35068750605061  1.05191036073607
 1  15.34196658875888  0.71144100450045 -1.34917457695770
 1  15.83558555955596 -1.93175990189019  0.12805520792079
 1  15.05107263906391 -2.10666886048605 -1.38527624802480
 1  16.69802786138614 -1.69923385198520 -1.38154026282628
 1  16.11088629832983  1.49683875657566  0.76718013901390
 1  16.38092979497950 -0.17529392509251  1.40040297199720
 1  18.41702089398940 -0.55074203800380 -0.23271927952795
 1  17.80590067126713  1.17583884238424 -0.99005248914891
 1  18.32694137693769  2.21307320692069  0.87181228212821
 1  18.77969424682468  0.69346295759576  1.71826817841784
 1  20.63310337703770  0.27140357615762  0.55970372077208
 1  20.17686451975198  2.96159514441444 -0.78567883738374
 1  21.59846596049605  1.96872275017502 -1.22032328632863
 1  19.96708754195419  1.68767016931693 -1.72636305960596
 1  20.93351336663666  1.27747705150515  2.52764220582058
 1  22.11090573107311  1.93225175637564  1.52817708390839
 1  20.94647718031803  2.93474715091509  1.73005893709371

