%nproc=4
%Mem=2GB
# td=(NStates=1) CAM-B3LYP/6-31G(d,p) 

TD

0 1
12 -7.10867253655366  0.57756599729973  0.02858090669067
 6 -4.79615849694969 -1.99397150845085  0.52389802470247
 6 -4.71778108440844  2.84440876817682  1.23546700390039
 6 -9.36597118591859  3.09395179457946 -0.31549288228823
 6 -9.51261228882888 -1.69403957895790 -0.87209532453245
 7 -5.16035881748175  0.37481874237424  0.81266878727873
 6 -4.34931253655366 -0.75949657005701  0.73102500530053
 6 -2.90789175037504 -0.41670694279428  1.20001544274427
 6 -3.05005529472947  0.93237436993699  1.86769957635764
 6 -4.46203429012901  1.46768714911491  1.29905616681668
 6 -3.08522631363136  1.00666715401540  3.35086861296130
 6 -1.96208048894889 -0.54244825492549  0.02145147094709
 6 -0.54810306430643 -0.42458068946895  0.51827040994099
 6  0.49273865226523 -0.67815124722472 -0.61923357515752
 8  0.19206975667567 -0.97054845864586 -1.69642892319232
 8  1.75608263326333 -0.40216512331233 -0.31104532463246
 7 -7.08194580308031  2.62773418071807  0.41172632943294
 6 -6.03626075707571  3.41735268916892  0.87931591559156
 6 -6.31438942864286  4.73210384078408  0.70949871437144
 6 -7.65518611401140  4.79325921262126  0.39253616061606
 6 -8.11939249244924  3.42347263856386  0.20251059025903
 6 -5.41302708390839  5.80214130543054  1.28707523272327
 6 -8.53637284968497  6.04658972697270  0.27091711361136
 6 -8.20203940174017  7.28706479077908  0.01332707040704
 7 -9.12692772847285  0.77351382968297 -0.57524923022302
 6 -9.82127378637864  1.82408309090909 -0.62073719791979
 6 -11.21864660756076  1.57207819821982 -1.05574032363236
 6 -11.29764828552855  0.13944782208221 -1.16318558475848
 6 -9.87081696539654 -0.32761124922492 -0.85157446034603
 6 -12.30335857795780  2.57501978287829 -1.30759129002900
 6 -12.42986303200320 -0.76345740794079 -1.64636981418142
 6 -12.34171050305031 -1.04576846204620 -3.20525863126313
 7 -7.14310056215622 -1.35090445204520 -0.28379149784979
 6 -8.26799202150215 -2.07638357785779 -0.59865767166717
 6 -7.87662533003300 -3.61624580748075 -0.44917334633463
 6 -6.56079160116012 -3.60245456095610 -0.01667415951595
 6 -6.14268904710471 -2.22299845434543  0.04847646904690
 6 -8.71207155185519 -4.92626544544455 -0.75318486548655
 6 -5.33801033873387 -4.43904989028903  0.20585908580858
 8 -5.12603396519652 -5.62135478907891  0.31162719751975
 6 -4.12673608360836 -3.34856779087909  0.51990288228823
 6 -3.50476484068407 -3.73735982058206  1.90250142984298
 8 -3.70931458605861 -3.17478071087109  2.96319003430343
 8 -2.73688503640364 -4.75611376387639  1.66472456045605
 6 -2.07498013651365 -5.23982445174517  2.88312964996500
 6  2.69483325992599 -0.76678593629363 -1.40997637253725
 6  4.06471979437944 -0.45237908730873 -0.76503903260326
 6  5.14681828922892  0.25668899339934 -1.24496439663966
 6  4.98860627722772  1.20883541984198 -2.38980607170717
 6  6.36575303290329  0.39638844574457 -0.40860754695470
 6  7.61141888078808 -0.23254513641364 -1.06909657835784
 6  8.91109019141914 -0.06450618411841 -0.16879947414741
 6  10.22111300430043 -0.50690778907891 -0.91905830023002
 6  10.17668485468547 -1.88134746964696 -1.28374003550355
 6  11.50036115321532 -0.16903779437944 -0.04182398369837
 6  12.81837900690069 -0.50042655855586 -0.69705024482448
 6  13.99326501430143 -0.04875163836384  0.14330154315432
 6  15.39081442544254 -0.18852146384638 -0.46679973027303
 6  15.74435853805381 -1.74985777157716 -0.74568184798480
 6  16.36316957095709  0.43816820292029  0.52688187288729
 6  17.74843054735474  0.64792291809181 -0.09589786968697
 6  18.76617201670167  1.29970181698170  0.78844120582058
 6  20.16852453225323  1.36492223682368  0.31342094569457
 6  20.41798202710271  2.13316896489649 -0.97863368476848
 6  21.02611048514851  1.98734310371037  1.42259896149615
 1 -4.00599085758576  3.51849023072307  1.75432995399540
 1 -10.12194594629463  3.87901548544854 -0.46489079167917
 1 -10.20549981178118 -2.33750380508051 -1.13157670517052
 1 -2.71373006370637 -1.11201086478648  2.00301754035404
 1 -2.33635327332733  1.79838832743274  1.58796316281628
 1 -2.06453017631763  0.83946943594359  3.68017823122312
 1 -3.34318910511051  2.12819227582758  3.72911747924792
 1 -3.88064904610461  0.22993736143614  3.74742862736274
 1 -2.39396192309231 -1.55005092549255 -0.55712069806981
 1 -2.18491269346935  0.27442953425343 -0.80809591119112
 1 -0.34963205720572  0.36288421192119  1.41424367626763
 1 -0.36731268496850 -1.40862383778378  1.16287916381638
 1 -4.72617478517852  6.28349352445245  0.52932471467147
 1 -6.05756042634263  6.63364316311631  1.73739842904290
 1 -4.82863609240924  5.52262743414341  1.97673135183518
 1 -9.60479797869787  5.69498243434343  0.49414725922592
 1 -8.85174581498150  8.08740733023302  0.12203279657966
 1 -7.13552858945895  7.41263183238324 -0.32052652325233
 1 -12.31832724552455  3.09986729202920 -2.32340863926393
 1 -13.39773498699870  2.09488512661266 -1.21076460016002
 1 -12.27448440984099  3.29165225062506 -0.34539603760376
 1 -12.50610313841384 -1.58081047924792 -1.16843705160516
 1 -13.30245624922492 -0.14294810781078 -1.59940729772977
 1 -13.29340980718072 -1.59582082128213 -3.52922592029203
 1 -12.09928010201020 -0.09647837373737 -3.75185276027603
 1 -11.36784013161316 -1.76879982398240 -3.35233434893489
 1 -9.05460635653565 -4.78930177847785 -1.63115069646965
 1 -8.13076677767777 -5.67165727392739 -0.51644587268727
 1 -9.73887605340534 -5.01237802480248 -0.10778903510351
 1 -3.39536966896690 -3.62288387288729 -0.24029068206821
 1 -1.37648873887389 -4.29104748204820  3.12732941994199
 1 -2.99296448384839 -5.41434207660766  3.65829305140514
 1 -1.79081050755076 -6.31522569966997  2.71774847774778
 1  2.69443411451145 -1.72144183408341 -1.71648572487249
 1  2.66278797899790  0.12537545594559 -2.30667268706871
 1  4.34140336463646 -1.17411541774177  0.11272364856486
 1  3.91506244254425  1.26807790409041 -2.78773211551155
 1  5.15379867826783  2.22590698089809 -2.03682803740374
 1  5.70549587238724  1.09411974217422 -3.32585388468847
 1  6.45463848714872  1.50344657235724 -0.25731823412341
 1  6.49952330033003 -0.28791204010401  0.52990399749975
 1  7.23309705180518 -1.23592466416642 -1.24165829452945
 1  7.70139167016702  0.29720659715972 -2.10993114001400
 1  9.03823992119212  0.86044866136614  0.18722268476848
 1  8.96211403420342 -0.49236759215922  0.87149176777678
 1  10.35058677017702  0.29163392969297 -1.73235706630663
 1  9.20325682208221 -2.41097814211421 -1.84781974317432
 1  11.02212529722972 -2.28814532713271 -1.86399258525853
 1  9.98675614921492 -2.50743236583658 -0.48126021672167
 1  11.41071583378338  0.74661906940694  0.32512447584758
 1  11.36735714541454 -0.78956129422942  0.82510998399840
 1  12.82215795149515 -1.69598646004600 -0.72793112801280
 1  12.91499040504051 -0.07595811681168 -1.74282264606461
 1  13.82345384858486  1.00156341184118  0.24791145164516
 1  13.89422551285128 -0.57838027532753  1.07305247494749
 1  15.44667705980598  0.21360122052205 -1.50876053555356
 1  15.55289729072907 -2.44745147104710  0.10243264566457
 1  15.16034356615662 -1.99400759435944 -1.71198891929193
 1  16.81691975057506 -1.90820474907491 -0.98643075187519
 1  15.99520473017302  1.37321639433943  0.72104552555256
 1  16.42784448644865 -0.08719511521152  1.44121705340534
 1  18.02608180008001 -0.37289425322532 -0.43447945554555
 1  17.82910299149915  1.31365262376238 -1.10169365326533
 1  18.37854653745374  2.36184808440844  0.74731983288329
 1  18.60082636003600  1.00282389368937  1.75038138973897
 1  20.51738180488049  0.37820425622562  0.14082183258326
 1  20.35451228452845  3.30673965886589 -0.72060232973297
 1  21.42482859675968  2.08184406230623 -1.28584983898390
 1  19.73694452765276  1.83512491479148 -1.81968239153915
 1  20.88927894319432  1.37897720152015  2.25439488108811
 1  22.10486512701270  2.01877040824082  1.17989225542554
 1  20.89194172677268  3.01942561876188  1.42028795999600

