%nproc=4
%Mem=2GB
# td=(NStates=1) CAM-B3LYP/6-31G(d,p) 

TD

0 1
12 -7.09882155145515  0.61235947664766  0.13217126572657
 6 -4.75368424952495 -1.96019813111311  0.49372500740074
 6 -4.90531983828383  2.82037636493649  1.19108256545655
 6 -9.52167675647565  3.07515991539154 -0.30263159615962
 6 -9.45611663926393 -1.72757293229323 -0.84546266126613
 7 -5.12568535013501  0.41125238573857  0.80511803220322
 6 -4.34535214051405 -0.69146976737674  0.73416531933193
 6 -2.86731769296930 -0.30907617971797  1.17238267946795
 6 -2.99574986418642  1.20092122462246  1.63708651505151
 6 -4.42561064776478  1.53706408680868  1.15076133733373
 6 -2.81231902290229  1.46291277857786  3.11601512761276
 6 -1.83673795469547 -0.60529453955396  0.05152447824782
 6 -0.47858611261126 -0.30567879927993  0.48284686758676
 6  0.59215859425943 -0.49898333043304 -0.63535518731873
 8  0.23642419211921 -0.91620302410241 -1.72258153845385
 8  1.85161218621862 -0.30942584938494 -0.17578179827983
 7 -7.21305891439144  2.56583799109911  0.43427858465847
 6 -6.21506863786379  3.33962491639164  0.86748473247325
 6 -6.59465745544555  4.71888251865186  0.86783454795480
 6 -7.88291888728873  4.77305719241924  0.36238314531453
 6 -8.26288684188419  3.40376066736674  0.16734707390739
 6 -5.72161794299430  5.88509960126013  1.28827535273527
 6 -8.75846505890589  6.02298736673667  0.16311633353335
 6 -8.30455965376538  7.25742182648265  0.18466420412041
 7 -9.14541957765777  0.58736521482148 -0.53282498779878
 6 -9.94694635363536  1.74672535513551 -0.65301042524252
 6 -11.30816555945595  1.40497148754875 -1.00446519611961
 6 -11.28069659035904  0.00593447074707 -1.14890415661566
 6 -9.94138402210221 -0.39239772787279 -0.91789109200920
 6 -12.37558580068007  2.30993327422742 -1.23301383228323
 6 -12.37566761246125 -0.88161922412241 -1.65358053525353
 6 -12.52549888188819 -1.12241612681268 -3.14097220262026
 7 -7.13309956205620 -1.45895525712571 -0.06771989068907
 6 -8.20753597589759 -2.30601654115412 -0.57400520642064
 6 -7.76860452795280 -3.66451063396340 -0.60353878287829
 6 -6.51386690869087 -3.57277159265927 -0.12296478857886
 6 -6.11423620182018 -2.19680583508351  0.08723034443444
 6 -8.41759210391039 -4.83362618151815 -0.92231177817782
 6 -5.29617615531553 -4.36167215251525  0.11187968786879
 8 -5.07499886168617 -5.54038669226923  0.16815285008501
 6 -4.12729613961396 -3.28523145724572  0.50939183118312
 6 -3.50762512671267 -3.69230531513151  1.84455563526353
 8 -3.96602025662566 -3.25249848264826  2.89497321262126
 8 -2.53479482738274 -4.60199835233523  1.71578966696670
 6 -1.97373001150115 -5.00945141444144  2.92344368136814
 6  2.87216099269927 -0.53735299299930 -1.31003637853785
 6  4.22303562596260 -0.33197704710471 -0.62931546024602
 6  5.18071167856786  0.40278360286029 -1.10888078827883
 6  5.07781519811981  1.24443898019802 -2.23181027212721
 6  6.46877333493349  0.44959376627663 -0.40989767596760
 6  7.64383212211221 -0.07350923282328 -1.04829449814982
 6  8.86915599799980 -0.11565129862986 -0.12086468066807
 6  10.21142203520352 -0.53224032233223 -0.89980637503750
 6  10.03421060726073 -2.02157149204920 -1.35614727622762
 6  11.42020313741374 -0.40922181278128  0.04369456815682
 6  12.81420858985899 -0.48199471537154 -0.67403794359436
 6  13.96121180898090 -0.04183094629463  0.26069328232823
 6  15.29770511451145 -0.21694430613061 -0.45401845214521
 6  15.68942304450445 -1.53867665346535 -0.83594087388739
 6  16.39787304130413  0.47882226832683  0.49183836853685
 6  17.71613731803181  0.46143426922692 -0.08970725062506
 6  18.81718711821182  1.18644049084908  0.70917327902790
 6  20.25885356515652  1.09113485808581  0.25552515611561
 6  20.43817404630463  1.88191383938394 -0.96296211761176
 6  21.21093896799680  1.69911428082808  1.37295399699970
 1 -4.10841109960996  3.62332071377138  1.50162468346835
 1 -10.34568832053205  3.94821240514051 -0.21331563416342
 1 -10.31427068886889 -2.40129018371837 -0.94368791629163
 1 -2.49244793549355 -0.85165482918292  2.04213145174517
 1 -2.28661829982998  1.91760024862486  1.07102146864687
 1 -1.83982770607061  1.09440492949295  3.59394960836084
 1 -3.02321710791079  2.54169362596260  3.29754432193219
 1 -3.43734471567157  0.72769713741374  3.55020890539054
 1 -1.89146167306731 -1.70324624502450 -0.05356034203420
 1 -1.98998320052005  0.10744283558356 -0.87172227382738
 1 -0.19774686868687  0.58959688318832  1.00321257315732
 1 -0.03737969166917 -0.96620959635964  1.32669554545455
 1 -5.03222539023902  6.31518669376938  0.54138592079208
 1 -6.55110978127813  6.77596739553955  1.51641633083308
 1 -5.32617584638464  5.50931610301030  2.30643432213221
 1 -9.97774527342734  5.79733266936694  0.37007485198520
 1 -9.09046968736873  7.98529711921192  0.23374396769677
 1 -7.25820085668567  7.52372294149415  0.14824035343534
 1 -12.07962337513751  3.23490079537954 -1.78929522792279
 1 -13.21414662816282  1.74355999409941 -1.64859838353835
 1 -12.83323028442844  2.92874595999600 -0.39942144014401
 1 -12.49589211731173 -1.80609300750075 -1.18904911281128
 1 -13.36771277487749 -0.26327014001400 -1.35042239923992
 1 -13.27276774297430 -1.63425466466647 -3.15064806250625
 1 -12.47140731473147 -0.32543126902690 -3.64653222822282
 1 -11.58987233483348 -1.66413935793579 -3.29680879637964
 1 -8.91319221512151 -4.99710255855585 -1.91775935733573
 1 -7.95486918791879 -5.87628773697370 -0.85367959605961
 1 -9.37589975577558 -4.80276706370637 -0.28976723292329
 1 -3.39750988298830 -3.62361394589459 -0.30786743974397
 1 -1.37674876487649 -4.23270164746475  3.39553624062406
 1 -2.71687687508751 -5.32512315471547  3.67843506560656
 1 -1.08888031453145 -5.55951012811281  2.76344304720472
 1  2.84978965006501 -1.57935762566257 -1.55547962426243
 1  2.82045374557456  0.12831574997500 -2.18182020182018
 1  4.39000822512251 -1.05386339253925  0.22527490369037
 1  4.06898783508351  1.28931002730273 -2.47693103540354
 1  5.21184448284829  2.40883527372737 -1.98410276487649
 1  5.72068739153915  0.94035436563656 -3.20942224152415
 1  6.69577260056006  1.54471069876988  0.12616011371137
 1  6.33068641664166 -0.13432668156816  0.50186119321932
 1  7.27877161926193 -0.96826789848985 -1.36874100280028
 1  7.83526505750575  0.46752362886289 -1.88504865176518
 1  9.09026512371237  0.75471808830883  0.37636159865987
 1  8.92817063986399 -0.86219457485749  0.60005462406241
 1  10.45564727622762  0.10610537683768 -1.84753858445845
 1  9.17810430683068 -2.32746979127913 -1.89600456165617
 1  10.74183726842684 -2.23348986158616 -1.97343352935293
 1  9.89134660826083 -2.70976259885989 -0.39232132283228
 1  11.25895065726573  0.55970037753775  0.44034599799980
 1  11.40479088878888 -1.08577091519152  0.92798027102710
 1  13.13835957165717 -1.60406726812681 -0.89671800670067
 1  12.97450635663566 -0.07008752975298 -1.71946030983098
 1  13.80753225642564  0.90186344184418  0.51901856235624
 1  13.85337142744274 -0.68701113841384  1.18481365106511
 1  15.26327871997200  0.34646450685068 -1.39474913441344
 1  15.70974297529753 -2.24526125202520 -0.04576217381738
 1  15.02647017881788 -1.82742093569357 -1.68038575897590
 1  16.73771182978298 -1.50481441004100 -1.34770687948795
 1  16.14959016871687  1.54119319201920  0.68575199619962
 1  16.54147584958496 -0.03091948764877  1.34934786648665
 1  18.00927011891189 -0.36210317411741 -0.29994600220022
 1  17.76230631183119  0.94915617411741 -1.12093557745775
 1  18.63693237603760  2.26293819341934  0.92977807870787
 1  18.61857813521352  0.86755036633663  1.70866721832183
 1  20.51923198989899 -0.16247981218122  0.14146189658966
 1  19.86749358265827  2.75674465936594 -0.89258952845285
 1  21.61267738163816  2.02517839573957 -1.29951120512051
 1  19.91974280748074  1.36034743704370 -1.70205062836284
 1  21.16462647794780  1.04768407220722  2.31547098869887
 1  22.17419205970597  1.80527905910591  0.92487675387539
 1  20.76012854545455  2.58955263146315  1.49075500670067

