%nproc=4
%Mem=2GB
# td=(NStates=1) CAM-B3LYP/6-31G(d,p) 

TD

0 1
12 -7.04640630993099  0.65542378307831  0.08897694629463
 6 -4.77620650175017 -1.98966107740774  0.47351298619862
 6 -4.71543084938494  2.85329965726573  1.20796425362536
 6 -9.34012860166017  3.18553095249525 -0.34757609060906
 6 -9.53309433703370 -1.64700487548755 -0.84946306130613
 7 -5.05994877647765  0.39309056955696  0.77797531793179
 6 -4.25892349764977 -0.71634225462546  0.81172307510751
 6 -2.94194515571557 -0.51082635473547  1.24619006020602
 6 -3.03181347054705  1.00846197869787  1.72070487688769
 6 -4.30465855255526  1.52252263266327  1.19435569676968
 6 -3.03376116711671  1.02700918821882  3.21336486258626
 6 -1.95235951685169 -0.53114712481248  0.15534486028603
 6 -0.49838809280928 -0.53588181958196  0.56622520542054
 6  0.47074645304530 -0.72822625472547 -0.63393504530453
 8  0.24924547424742 -1.11092249604960 -1.69776905720572
 8  1.73392041704170 -0.31903681048105 -0.18671289138914
 7 -7.00373798229823  2.59850125742574  0.30311546834683
 6 -5.89875700670067  3.35752670657066  0.72745072907291
 6 -6.34974296399640  4.77530816121612  0.75783354785479
 6 -7.62505310071007  4.80368025472547  0.40979788678868
 6 -8.02184273747375  3.46514680598060  0.02806314551455
 6 -5.51517729892989  5.84926601790179  1.39753627882788
 6 -8.44770398279828  6.05408047604760  0.25945596749675
 6 -8.05476467426743  7.29362544684468  0.14185992369237
 7 -9.02522755845584  0.66634311261126 -0.49269097439744
 6 -9.76815847484748  1.83883456605661 -0.64326945114511
 6 -11.21939668256826  1.47412840324032 -1.06066081568157
 6 -11.20371889258926  0.07562143944394 -1.29924919111911
 6 -9.85300518421842 -0.32449093719372 -0.89238854175418
 6 -12.22228047014702  2.47053933483348 -1.36966749764977
 6 -12.32992303800380 -0.73335439763976 -1.67352252945295
 6 -12.24483081508151 -1.12942682788279 -3.19704781018102
 7 -7.24286053815382 -1.43768312991299 -0.08220133883388
 6 -8.29479470177018 -2.25174111361136 -0.56653445934593
 6 -7.85703337083708 -3.56911109400940 -0.47922635163516
 6 -6.50211573357336 -3.52314663016302 -0.11497398949895
 6 -6.17778255645565 -2.22882903740374  0.15436705810581
 6 -8.65194553925392 -4.78385120402040 -0.83283283028303
 6 -5.41854839253925 -4.34693067836784  0.12535103500350
 8 -5.25192655445545 -5.59849250285029  0.15814184898490
 6 -4.19559296929693 -3.43252618671867  0.56301719371937
 6 -3.51481584578458 -3.69509559415942  1.85148632833283
 8 -3.61546520112011 -3.09349258205821  2.89424313961396
 8 -2.66962831073107 -4.71604975747575  1.74278236623662
 6 -2.06806944544454 -5.20163063236324  3.02314365136514
 6  2.77015079167917 -0.58676793449345 -1.30509588448845
 6  3.98195151755176 -0.44412826222622 -0.55969849854986
 6  5.07781138853885  0.25287861236124 -0.98673857405741
 6  5.13403081968197  1.09534407070707 -2.23043013411341
 6  6.32818927652765  0.41860066696670 -0.12777946414641
 6  7.52434017291729 -0.11909379127913 -0.94965463416342
 6  8.86768585098510 -0.26512624612461 -0.15329792399240
 6  10.14557545054505 -0.59816691499150 -0.89848624302430
 6  10.02929011521152 -2.07306664156416 -1.49198085958596
 6  11.37526864396440 -0.31823271387139 -0.01510131143114
 6  12.71115828482848 -0.52927944384438 -0.73189372917292
 6  13.87057274507451 -0.16277304050405  0.23092030503050
 6  15.24635997999800 -0.16565917761776 -0.47227027732773
 6  15.60334443664367 -1.60287307310731 -0.97447472727273
 6  16.30572382638264  0.42061644774477  0.48266745144514
 6  17.69726543084309  0.69139726552655 -0.15899417931793
 6  18.75981138063807  1.28372021882188  0.70940330203020
 6  20.16441412121212  1.42038778337834  0.20197980158016
 6  20.23227345624562  2.34025967396740 -1.04791061246125
 6  20.88996687078708  1.97477184658466  1.34611131273127
 1 -3.94601485998600  3.49252763446345  1.52942746374638
 1 -10.00379413111311  3.81269885378538 -0.59284358695870
 1 -10.27137639943994 -2.49741979667967 -1.23366691419142
 1 -2.66961565226523 -1.23471313501350  2.10590782938294
 1 -2.20672031003100  1.71380986958696  1.63862822932293
 1 -2.21957568086809  0.69129461846185  3.68758897229723
 1 -3.03103788998900  2.11572102870287  3.57611217871787
 1 -3.95664664586459  0.57156152385238  3.74687857235724
 1 -2.01840436733673 -1.38011393179318 -0.60597558355836
 1 -2.16443064526453  0.32180427172717 -0.50029513111311
 1 -0.06583367736774  0.35227315081508  0.81140339223922
 1 -0.23781973567357 -1.52176515191519  1.28297117301730
 1 -5.08325049274927  6.57464263936394  0.65090687288729
 1 -6.09498416871687  6.53195299409941  2.12955764496450
 1 -4.76897012581258  5.44778995039504  1.98912259095910
 1 -9.64271177007701  5.82210514661466  0.46112395689569
 1 -8.71810245064506  8.02843143264326  0.15922651595160
 1 -7.00629566616662  7.51354192339234 -0.08210268086809
 1 -11.87515292809281  2.87943524882488 -2.34138043644364
 1 -13.14640985448545  1.98801443954395 -1.71834535823582
 1 -12.25227218861886  3.29238232363236 -0.69607110511051
 1 -12.36988951705171 -1.61447384558456 -1.07689789768977
 1 -13.28779478307831 -0.42238605160516 -1.57845520252025
 1 -13.16264673087309 -1.54853609280928 -3.50731372907291
 1 -12.31127130113011 -0.21241996789679 -3.89885746074608
 1 -11.37880122772277 -1.65732867686769 -3.36157527302730
 1 -9.05138603450345 -4.79543239153915 -1.86575415681568
 1 -8.11425512651265 -5.75571567976798 -0.65349957805781
 1 -9.48724088988899 -4.97899468646865 -0.17426568276828
 1 -3.51983211521152 -3.58257984248425 -0.36657331033103
 1 -1.52393348334834 -4.33979235653565  3.46431311831183
 1 -2.82924811221122 -5.52975361776178  3.68903612571257
 1 -1.50583200970097 -5.98833301040104  2.63978068096810
 1  2.59979465056506 -1.57481717161716 -1.67773184948495
 1  2.64782648284829  0.07139005740574 -2.24506652645264
 1  4.20323954825483 -0.81833984018402  0.52747512371237
 1  4.06514745104510  1.00698179447945 -2.82524586688669
 1  5.24756805520552  2.24168855905591 -2.00794514911491
 1  5.90754607740774  0.52693302350235 -3.01691299059906
 1  6.36148917221722  1.53889011671167 -0.00362286458646
 1  6.19687303530353 -0.02980622952295  0.92203321042104
 1  7.32779652175217 -1.16870794249425 -1.54284841354135
 1  7.56257778877888  0.65342221872187 -1.49907005390539
 1  9.03283938113811  0.62239485598560  0.54216817931793
 1  8.73248107090709 -0.97524587998800  0.69423404200420
 1  10.26816852835283  0.03395816211621 -1.85933976457646
 1  9.06662315871587 -2.21412845714571 -1.98145310651065
 1  11.05858894359436 -2.25189170177018 -2.11176736273627
 1  9.77372484608461 -2.70372199479948 -0.66395848654865
 1  11.30299506170617  0.60713512101210  0.45066703010301
 1  11.23259366906691 -1.12039437753775  0.84914238723872
 1  12.68459419511951 -1.56905376677668 -0.90793912881288
 1  12.75649455545555  0.30225970497050 -1.57924628842884
 1  13.79573107630763  1.00719397489749  0.69484614511451
 1  13.86654274457446 -0.77495993329333  1.02828799849985
 1  15.38079047114711  0.71520138053805 -1.20575023452345
 1  15.60172217321732 -2.57525425132513 -0.29261685928593
 1  14.91848938073807 -1.91676987058706 -1.85568328872887
 1  16.65748380698070 -1.72371630023002 -1.29466157495750
 1  15.99295450515051  1.29895896859686  0.90026344734473
 1  16.20856255825583 -0.20125652135213  1.50134306600660
 1  18.12803199509951 -0.25990295409541 -0.52906891449145
 1  17.46616669786979  1.25722698119812 -1.12571605550555
 1  18.29756843964396  2.29136103570357  1.05652075297530
 1  18.72678895629563  0.76353996529653  1.70606695829583
 1  20.33924399109911  0.38272470827083 -0.04078632823282
 1  19.72743957725773  3.43358234313431 -0.88786905640564
 1  21.40677679157916  2.57182306020602 -1.33135438943894
 1  19.78460929412941  2.01830323262326 -1.90412083538354
 1  20.99476949224923  1.43837314111411  2.26060550215022
 1  22.05138977947795  2.09139767096710  1.25643991019102
 1  20.54432696529653  2.99225290149015  1.76134206540654

