%nproc=4
%Mem=2GB
# td=(NStates=1) CAM-B3LYP/6-31G(d,p) 

TD

0 1
12 -7.12764443374337  0.62591083178318  0.06169421802180
 6 -4.84214309540954 -1.98211032233223  0.53981961686169
 6 -4.87459676597660  2.82052637993799  1.30808426562656
 6 -9.47577216601660  3.15061746114611 -0.33768510151015
 6 -9.43592462006201 -1.76972714771477 -0.96190430543054
 7 -5.17721050265027  0.48934019451945  0.85631315171517
 6 -4.36164376967697 -0.74411503190319  0.82856475927593
 6 -2.99350031123112 -0.35762103420342  1.20078551975198
 6 -3.02574286348635  1.17935906840684  1.67015982238224
 6 -4.41309939663966  1.51152153255326  1.31804806600660
 6 -2.92457024802480  1.16630311761176  3.20972449854986
 6 -1.95729000990099 -0.56909091919192  0.05151447724772
 6 -0.50245849984999 -0.46567479887989  0.54744332723272
 6  0.53536291469147 -0.68823225532553 -0.55131678347835
 8  0.30998154785479 -1.11793319711971 -1.64899417971797
 8  1.73659068406841 -0.27581248804881 -0.19256347644764
 7 -7.09307691619162  2.58366977427743  0.29098425522552
 6 -6.10687781878188  3.32140309420942  0.86435441944194
 6 -6.45628361806181  4.74379500990099  0.96153391789179
 6 -7.80367096249625  4.88530841754175  0.41191809880988
 6 -8.16823737693769  3.41958224952495  0.08490883008301
 6 -5.50969675087509  5.84431552285228  1.43545007020702
 6 -8.66129534193419  6.01641670967097  0.30560058195820
 6 -8.16628582638264  7.23930001430143  0.22945868356836
 7 -9.12200723642364  0.58156463476348 -0.58231993729373
 6 -9.94784644364436  1.82467314991499 -0.65846097029703
 6 -11.21650639353935  1.53624461486149 -1.16412116171617
 6 -11.24041256195619  0.06227010431043 -1.30039930613061
 6 -9.87596748044805 -0.35851433953395 -1.01119042194219
 6 -12.39011725382538  2.42018429932993 -1.36097662856286
 6 -12.39104915061506 -0.84964602680268 -1.84211938913891
 6 -12.18760509250925 -0.97762164736474 -3.43497160256026
 7 -7.24123037513751 -1.43232259385939 -0.16005912461246
 6 -8.28882410471047 -2.28694463396340 -0.52612041794179
 6 -7.76428409590959 -3.65144932783278 -0.50296872587259
 6 -6.49268479047905 -3.60612492799280  0.02912041994199
 6 -6.22935771397140 -2.22652880738074  0.16988861026103
 6 -8.76155650035003 -4.75170798969897 -0.94476402340234
 6 -5.37677421512151 -4.40605659095910  0.20623912381238
 8 -5.14640600240024 -5.57604025762576  0.03874990979098
 6 -4.11338474847485 -3.32311524562456  0.61555244724472
 6 -3.61175553975398 -3.77035311991199  1.98741992169217
 8 -3.87147080168017 -3.07268050085008  2.97853156845685
 8 -2.68948029592959 -4.78255640814081  1.88592668066807
 6 -2.12971561006101 -5.13267373667367  3.06896823382338
 6  2.78631240784078 -0.69763902160216 -1.21096647154715
 6  4.16911023342334 -0.43192704210421 -0.62351488018802
 6  5.20074368176818  0.29314263876388 -1.00205010521052
 6  5.13655107170717  1.25397993429343 -2.14290138123812
 6  6.45888234583458  0.21802060896090 -0.18757544374437
 6  7.60861860076008 -0.21770365226523 -0.97305697439744
 6  8.99601868426843 -0.17245697919792 -0.23594618881888
 6  10.17648854185419 -0.56966406470647 -0.93978037243724
 6  10.21887907410741 -1.98613794869487 -1.51308296979698
 6  11.43631474857486 -0.34672556315632 -0.01900170147015
 6  12.79675684468447 -0.53432994889489 -0.64086462626263
 6  13.92941862966297 -0.00511727492749  0.28992620562056
 6  15.31431677567757 -0.12189480118012 -0.40535358565857
 6  15.67436153835384 -1.52334512031203 -0.87469474927493
 6  16.40619387338734  0.66644103020302  0.35931511621162
 6  17.75306101040104  0.57817594339434 -0.21763004290429
 6  18.79242464196420  1.36534838163816  0.68174053575358
 6  20.28215589538954  1.22480822542254  0.18837844144414
 6  20.46825705460546  2.00051569956996 -1.19571539293929
 6  21.17046492059206  1.85821019041904  1.28427512911291
 1 -4.20116037453745  3.45239362106211  1.79838435943594
 1 -10.18158190989099  3.81400898479848 -0.64952925552555
 1 -10.25953521532153 -2.47936799149915 -1.10294384188419
 1 -2.60674936563656 -1.03996366006601  2.11210844944494
 1 -2.21869150715072  1.74158264686469  1.20350471697170
 1 -1.87460118341834  0.86209169816982  3.65715592899290
 1 -3.26518130433043  2.24800425702570  3.36936150365037
 1 -3.66663764496450  0.45004937263726  3.80277416191619
 1 -2.34344687158716 -1.34749066946695 -0.60003498949895
 1 -2.12499670187019  0.29557164846485 -0.86720182178218
 1 -0.00934802880288  0.35679360286029  1.06422867476748
 1 -0.50379633333333 -1.39501247664766  1.23699657555756
 1 -5.17158932663266  6.34699987508751  0.49429121132113
 1 -5.95389005930593  6.72956275507551  2.07730241944194
 1 -4.53698692749275  5.50760593199320  2.09617329602960
 1 -9.80589808870887  5.89117205330533  0.40083792829283
 1 -8.57909855025503  8.21299988948895  0.18198879217922
 1 -7.10171520812081  7.37842841204120  0.21467699709971
 1 -12.25874128692869  2.96868417371737 -2.35124142254225
 1 -13.36122133563356  1.91531716981698 -1.61028455215522
 1 -12.62941990339034  3.21155424082408 -0.57559905790579
 1 -12.21313384148415 -1.78518091629163 -1.39394960286029
 1 -13.26415241884188 -0.35107892089209 -1.70048740574057
 1 -13.11910237643764 -1.43035427462746 -3.94056705440544
 1 -12.06802697669767 -0.00921964786479 -3.85451302630263
 1 -11.11740508810881 -1.43597654165417 -3.56826594209421
 1 -9.27541843774378 -4.66980982928293 -1.97630521192119
 1 -8.23584728572857 -5.80461056925693 -1.19236346444644
 1 -9.59462162796280 -4.91547833483348 -0.22849110531053
 1 -3.32194232623262 -3.58226981148115 -0.02313896689669
 1 -1.57471856185618 -4.21971034833483  3.37462414941494
 1 -3.04275946334633 -5.39372001440144  3.68689591169117
 1 -1.44585601210121 -6.08846302340234  2.93740044294429
 1  2.58510318141814 -1.79665935583558 -1.45297937423742
 1  2.47734943514351 -0.06775385698570 -2.22967498729873
 1  4.22890211451145 -1.02925093129313  0.25762813901390
 1  4.03547448374837  1.54561565786579 -2.47699104140414
 1  5.67233053145314  2.08423281348135 -1.80448480308031
 1  5.61419674247425  0.70004033423342 -3.04368566786679
 1  6.37393041634163  1.37338356605661  0.21797929562956
 1  6.32916626462646 -0.06078932783278  0.94186519361936
 1  7.51500524262426 -1.32626369806981 -1.28346247494749
 1  8.02067359835984  0.32841971847185 -1.77263741064106
 1  9.15520161736173  0.85990860736074  0.05290925342534
 1  8.93233105590559 -0.80318867426743  0.72014663326333
 1  10.11952366386639  0.15450021632163 -1.79628345894589
 1  9.28455495189519 -2.12421946624662 -1.90911587278728
 1  11.01198428312831 -2.09387590019002 -2.28117430343034
 1  10.25362283588359 -2.62890451305130 -0.62826491719172
 1  11.57550231243124  0.75683009050905  0.11334329772977
 1  11.32724313401340 -1.12404474257426  0.89660713371337
 1  12.87855359105911 -1.57624448584858 -0.84115245014501
 1  13.13579248524853  0.22205168416842 -1.53297166096610
 1  13.67661916511651  1.05921917741774  0.69550621112111
 1  13.98125421572157 -0.69622205950595  1.21374654435444
 1  15.15973836593659  0.52872273267327 -1.41533119261926
 1  15.44577657865787 -2.13142986888689  0.02062446484649
 1  14.85846337813781 -1.85415360896090 -1.65260298069807
 1  16.74911296989699 -1.57283121172117 -1.25506761556156
 1  16.05143035273527  1.63353242594259  0.52201562256226
 1  16.54303600560056  0.03052665696570  1.35552848454845
 1  18.09433862576258 -0.45066203000300 -0.16432243984398
 1  17.77224730593059  1.04092535103510 -1.15072855675568
 1  18.40740942374237  2.50093199279928  0.49561466236624
 1  18.72386866426643  1.05394900620062  1.82355870747075
 1  20.58675874257425  0.19540597639764  0.06924467486749
 1  20.49926675997600  3.21453043794379 -1.07125739523952
 1  21.47255336923692  1.77741361926193 -1.68212946694669
 1  19.70744157735773  1.72092349464947 -2.04568499179918
 1  21.11765178047805  1.46889619341934  2.20251969356936
 1  22.23408804930493  1.97789632083208  1.14264853105311
 1  21.02861539413941  2.83845752195219  1.62054798599860

