%nproc=4
%Mem=2GB
# td=(NStates=1) CAM-B3LYP/6-31G(d,p) 

TD

0 1
12 -7.11743341264126  0.61179942064206  0.13548159675968
 6 -4.78445732683268 -1.88317042834283  0.56078171307131
 6 -4.85043434973497  2.80971529882988  1.19730318751875
 6 -9.53843843264326  3.00924332373237 -0.20029136213621
 6 -9.43033406100610 -1.74384455945595 -0.87326544154415
 7 -5.03603638523852  0.47273853435344  0.65663318371837
 6 -4.35956356165617 -0.70352097249725  0.75910781358136
 6 -2.95926688788879 -0.31634690679068  1.21734717591759
 6 -2.98376866606661  1.14177531003100  1.52856566296630
 6 -4.39356744344434  1.54661504190419  1.03672993419342
 6 -2.85687347834783  1.36489297659766  3.14234776087609
 6 -1.97291157205721 -0.63429743984398  0.06294562036204
 6 -0.50132838683868 -0.42600083148315  0.43132171507151
 6  0.53895327372737 -0.61901533363336 -0.63929558135814
 8  0.20469101880188 -1.00255165896590 -1.74846412671267
 8  1.73622064706471 -0.31584649144914 -0.25494971507151
 7 -7.11560916941694  2.63353476077608  0.51912706950695
 6 -6.10475760676068  3.34287524142414  0.90196818081808
 6 -6.49370736043604  4.82575320572057  0.95418318281828
 6 -7.85082567796780  4.83811369806981  0.47787469446945
 6 -8.32046259945995  3.44353464476448  0.28263860306031
 6 -5.63267904910491  5.93881497279728  1.43567009220922
 6 -8.70465967836784  6.04407947594760  0.27911793369337
 6 -8.35948514631463  7.35108119241924  0.09765550325033
 7 -9.15920095579558  0.62485896419642 -0.43702540784078
 6 -9.91933359235924  1.73831451405141 -0.55680080428043
 6 -11.24752949584959  1.35409640004000 -1.08915366496650
 6 -11.21605012571257 -0.02204832753275 -1.26962622882288
 6 -9.94844472817282 -0.49984847294729 -0.83998330123012
 6 -12.29581782388239  2.34682696359636 -1.32203273417342
 6 -12.32136218191819 -0.90800186238624 -1.77504268146815
 6 -12.19409574157416 -1.16151003620362 -3.38633673907391
 7 -7.14870112221222 -1.41009037063706 -0.17842096079608
 6 -8.25432065436544 -2.23914985448545 -0.49447725362536
 6 -7.80117778527853 -3.57041122402240 -0.44695312431243
 6 -6.42195771777178 -3.54496881238124 -0.00465295739574
 6 -6.11068584678468 -2.15916207070707  0.13125474687469
 6 -8.63143348804880 -4.86546936583658 -0.69744929192919
 6 -5.20124666236624 -4.32383836913691  0.23343184308431
 8 -5.01514287608761 -5.51333398699870  0.15312134693469
 6 -4.06734014401440 -3.21596453055305  0.46685757775778
 6 -3.44099846404640 -3.60739682428243  1.84804598429843
 8 -3.70532418701870 -3.14201743454345  2.90938465376538
 8 -2.60163151105111 -4.68590674317432  1.69646773477348
 6 -2.06593923242324 -5.21663213251325  2.90260159715972
 6  2.77997177377738 -0.48596785448545 -1.33292866776678
 6  4.19432275467547 -0.44356820622062 -0.68337086578658
 6  5.07496110351035  0.45132845734573 -0.95678557875788
 6  5.03411082768277  1.36802133843384 -2.20765785688569
 6  6.37098355595560  0.50494930183018 -0.36201288748875
 6  7.58147588648865 -0.19445132703270 -1.09458912761276
 6  8.84077315971597 -0.21786151965197 -0.23580617481748
 6  10.14123501650165 -0.57094419271927 -0.97348374277428
 6  10.18192537873787 -1.99700903580358 -1.32325398689869
 6  11.35915703280328 -0.20885177577758 -0.08503830513051
 6  12.75204237323732 -0.45378189408941 -0.73096363616362
 6  13.94316000380038 -0.18426518971897  0.26136334933493
 6  15.32484782878288 -0.31100371207121 -0.35477852815282
 6  15.63535763796380 -1.78520130593059 -0.70462774257426
 6  16.36862011601160  0.36475086118612  0.47785697039704
 6  17.80017572187219  0.48807693349335 -0.10330861076108
 6  18.79458485798580  1.20422226902690  0.83085544724472
 6  20.29382706250625  1.25908165276528  0.30652025562556
 6  20.31503173207321  2.01247689568957 -1.08151397279728
 6  21.12029990409041  1.88413278267827  1.30109681128113
 1 -3.92200245874587  3.46301468316832  1.34775929692969
 1 -10.18396214791479  3.85884346824683 -0.37478178077808
 1 -10.12164142594259 -2.60416047074707 -1.20784433193319
 1 -2.76167485818582 -0.77365702940294  1.97900513911391
 1 -2.08587822582258  1.64612310091009  0.93606797329733
 1 -1.83188691199120  1.21481697069707  3.30896110951095
 1 -3.14064885108511  2.41058051465147  3.54157872537254
 1 -3.54748572977298  0.71532590029003  3.46694057855786
 1 -2.15026755365537 -1.64337025742574 -0.53861884788479
 1 -2.42312651485149  0.23951604290429 -0.70497559915992
 1 -0.29248634263426  0.34520244374437  0.80223247514751
 1 -0.30343629732973 -1.30582355775578  1.01492436833683
 1 -4.95085725342534  6.38606378147815  0.61351313351335
 1 -6.03438810911091  6.74737453625362  1.93769845904590
 1 -4.99655288408841  5.50054522592259  2.10841452015202
 1 -9.80795829472947  5.85696863296330  0.33571141564156
 1 -9.12155279567957  8.21797038653865  0.28201879517952
 1 -7.16258129472947  7.33165373457346 -0.03484795539554
 1 -12.08769418221822  2.97911521682168 -1.96027232563256
 1 -13.17462267576758  1.79679531763176 -1.85048857255726
 1 -12.52441940334034  3.04403748914892 -0.57390888888889
 1 -12.25291781988199 -1.93064546274628 -1.25538574647465
 1 -13.23137914151415 -0.34636844984498 -1.66976433343334
 1 -12.97859832603260 -1.66850809000900 -3.66118911661166
 1 -12.08197837183718 -0.07612633853385 -3.92158973397340
 1 -11.29710305790579 -1.85664860886089 -3.63540265576558
 1 -9.10179107500750 -4.71694454275428 -1.63033061446145
 1 -7.89116281728173 -5.81934204240424 -0.85393962206221
 1 -9.40556272207221 -5.02848963596360  0.18062980678068
 1 -3.45003513551355 -3.36718830333033 -0.50295694869487
 1 -1.42199328932893 -4.46744512181218  3.36589327632763
 1 -2.93272846024602 -5.66411705410541  3.60561778387839
 1 -1.55413684018402 -6.16866104320432  2.46443314621462
 1  2.47191186228623 -1.61129081898190 -1.70312438873887
 1  2.65760746094610  0.23213613201320 -2.15066708650865
 1  4.27612683698370 -1.09105711191119  0.21603397959796
 1  4.09525046134613  1.41819291559156 -2.60484382668267
 1  5.28228152655266  2.41293568376838 -2.00609496409641
 1  5.46921224402440  0.81835216541654 -3.00514181348135
 1  6.79653267656766  1.50073630133013  0.12693019071907
 1  6.42046539453945 -0.13255650455045  0.56484749184919
 1  7.21177491959196 -1.19457052875288 -1.38300242894289
 1  7.78608013901390  0.50690756725673 -2.06189633653365
 1  8.97280337753775  0.91130374687469  0.04777874037404
 1  8.87107493029303 -0.83694204960496  0.56690130873087
 1  10.24776648814882 -0.04605983968397 -1.97969179977998
 1  9.44400089648965 -1.90869791409141 -1.92401736293629
 1  10.98375145984599 -2.40672718531853 -1.93784997099710
 1  10.11877935153515 -2.56663828642864 -0.38842093279328
 1  11.12681744394439  0.91764617211721  0.01240320372037
 1  11.14088449814981 -0.82664500260026  1.02323979697970
 1  12.99879561526153 -1.50556741814181 -1.14654298919892
 1  12.86806571257126  0.17513699269927 -1.47690605440544
 1  13.92623412661266  0.91510476597660  0.63455011551155
 1  14.10138622892289 -0.75869830713071  1.19225439513951
 1  15.33675606770677  0.10234009440944 -1.35927558705871
 1  15.67755975697570 -2.54448117401740  0.11221362376238
 1  14.89251678347835 -2.52009020262026 -1.29975769616962
 1  16.66205426402641 -1.70985491409141 -1.08489059785979
 1  15.80096530623062  1.24942401510151  0.81788520952095
 1  16.42205390739074 -0.17036343204320  1.42188512021202
 1  18.07953714561456 -0.66451341514151 -0.33840984858486
 1  17.80492057325733  1.02717397589759 -1.09578306220622
 1  18.43663234603460  2.16599849944995  1.00751585248525
 1  18.72842912031203  0.66115972727273  1.80333668526853
 1  20.60093015971597  0.30830726652665  0.12070982138214
 1  19.95658249154916  3.00991997689769 -0.90477074657466
 1  21.24260037393739  1.95153103100310 -1.42926418041804
 1  19.62345317851785  1.39317071937194 -1.77575799909991
 1  20.85408542384238  1.44528383218322  2.32739218081808
 1  22.26262090259026  2.01008954015402  1.03825809200920
 1  20.63566609920992  3.09861353755376  1.48232416361636

