%nproc=4
%Mem=2GB
# td=(NStates=1) CAM-B3LYP/6-31G(d,p) 

TD

0 1
12 -7.11150281958196  0.60283852455246  0.07986603520352
 6 -4.83892277337734 -1.92063417471747  0.54044967986799
 6 -4.82953225952595  2.90174450175018  1.21356481368137
 6 -9.44648923772377  3.07002940234023 -0.25650698369837
 6 -9.56057708530853 -1.76280645564556 -1.02367048204820
 7 -5.09858263986399  0.49120038053805  0.81555907630763
 6 -4.31859946524652 -0.67501812221222  0.83131503430343
 6 -2.93182414361436 -0.37288256035604  1.26818225942594
 6 -3.00558084728473  1.07601873437344  1.67945075147515
 6 -4.40356844354435  1.52801318171817  1.20622688388839
 6 -2.82662045304530  1.39699618691869  3.17460098619862
 6 -1.93177745864586 -0.57703171327133  0.12921224702470
 6 -0.48916717071707 -0.39341757315732  0.54627321022102
 6  0.54771414981498 -0.81944537663766 -0.60149180098010
 8  0.23318386808681 -1.11537294109411 -1.73942322262226
 8  1.77083410841084 -0.59856476327633 -0.05280950105010
 7 -7.04971257975798  2.57071847914791  0.41511666846685
 6 -6.02179931093109  3.42225317921792  0.88496648064806
 6 -6.49926791649165  4.78614924532453  0.89257702220222
 6 -7.85307590299030  4.80038992569257  0.52218912591259
 6 -8.19689024222422  3.37913820512051  0.18481882108211
 6 -5.66312209340934  5.91563265456546  1.31670819601960
 6 -8.76653586598660  5.94998006600660  0.39853987588759
 6 -8.36035523332333  7.17274335863586 -0.02610687298730
 7 -9.08926396209621  0.64528100640064 -0.47896960226023
 6 -9.86704836383638  1.79553023562356 -0.53795892009201
 6 -11.19978472137214  1.47987897829783 -1.10594534413441
 6 -11.15536405710571  0.09624350165016 -1.37346661286129
 6 -9.96268615231523 -0.40615910401040 -0.86041534443444
 6 -12.36961520362036  2.43401568246825 -1.37941847274727
 6 -12.22543258895890 -0.76656771897190 -1.94012919011901
 6 -12.25964229622962 -0.90261414661466 -3.51774988038804
 7 -7.23312956505651 -1.33144250585058 -0.22109522822282
 6 -8.24584980728073 -2.23249918941894 -0.64780258615862
 6 -7.78928659615962 -3.56762094499450 -0.53333176217622
 6 -6.49413493549355 -3.54340865636564 -0.06838933103310
 6 -6.18438321652165 -2.13414956945695  0.10609223062306
 6 -8.54258460316032 -4.79941276017602 -1.00555010201020
 6 -5.34402093979398 -4.31660764606461  0.20597909780978
 8 -5.13624498629863 -5.54461711531153  0.24032006680668
 6 -4.16509991999200 -3.30760369446945  0.55659655165517
 6 -3.46566093029303 -3.65788187278728  1.88129930963096
 8 -3.67426108070807 -3.21335456825683  2.96659037433743
 8 -2.60786213411341 -4.63048120062006  1.68958704670467
 6 -2.06771941044104 -5.22672314161416  2.89090042704270
 6  2.83754753135314 -0.66503576127613 -1.10882625752575
 6  4.14415773817382 -0.59243309270927 -0.42003453215322
 6  5.15760936833683  0.32882620712071 -0.89288918911891
 6  5.13052046864686  1.14145868216822 -2.12840993209321
 6  6.40640709830983  0.37058586548655 -0.11439812601260
 6  7.59265700460046 -0.21132301420142 -0.79918958765877
 6  8.91145022742274 -0.02843257675768 -0.01147374157416
 6  10.23139403240324 -0.61845894419442 -0.76591298569857
 6  10.07469465566557 -2.03260259515952 -1.20649231073107
 6  11.41107222432243 -0.34891578217822  0.04618481718172
 6  12.75623279227923 -0.44679119501950 -0.59050959075908
 6  13.96014170197020 -0.07040380358036  0.25052226522652
 6  15.24201954595460 -0.10491310301030 -0.55003805410541
 6  15.66636073827383 -1.55179796559656 -1.01695897569757
 6  16.30702395639564  0.42383676977698  0.51457064176418
 6  17.68734443874387  0.64142226802680 -0.17570585048505
 6  18.75004040354035  1.24732657945795  0.69524188588859
 6  20.21822950275028  1.31256700130013 -0.01554195059506
 6  20.23712394129413  2.14290993899390 -1.21662748414842
 6  21.16290416451645  1.78973334273427  1.02050875247525
 1 -3.96207646614661  3.51293967566757  1.52151667266727
 1 -10.26976072777278  3.60658824272427 -0.33909821242124
 1 -10.31395065686569 -2.48534858955896 -1.28043159065907
 1 -2.68632732343234 -1.06743640734073  2.10782802140214
 1 -2.26484612261226  1.68343683228323  1.12782714921492
 1 -1.95089881318132  0.95333082208221  3.45298551195120
 1 -2.82851763796380  2.35685514211421  3.72080664816482
 1 -3.62968394959496  0.70814518221822  3.72307619211921
 1 -2.09210173707371 -1.59033495389539 -0.16846183218322
 1 -2.28600280248025  0.04948704000400 -0.73061816341634
 1 -0.10191728572857  0.56775469896990  0.94455670757076
 1 -0.31641759545955 -1.05225820122012  1.34402727862786
 1 -5.35476764446445  6.27350252535254  0.31536331853185
 1 -6.34404907520752  6.74653445224522  1.64235892509251
 1 -4.86761999079908  5.73773894529453  1.99459313801380
 1 -9.85011251015101  5.68618155425543  0.40164800930093
 1 -9.17195783618362  7.98907749724972  0.15355594889489
 1 -7.23740877747775  7.52453302250225 -0.27468193879388
 1 -12.20859627242724  3.07922522782278 -2.24430072847285
 1 -13.32117733123312  1.90365600370037 -1.43519704340434
 1 -12.43003996539654  3.18627171257126 -0.64627612561256
 1 -12.36989951805180 -1.63404580278028 -1.46273648154815
 1 -13.18331433503350 -0.24039785278528 -1.66693405040504
 1 -13.11519198539854 -1.44212545174517 -3.81996499419942
 1 -12.18460863486349 -0.00706943284328 -3.99738731373137
 1 -11.19527287488749 -1.39932287628763 -3.64771388688869
 1 -9.16335723162316 -4.58601144944494 -1.99141672307231
 1 -7.87889159015902 -5.50710081828183 -1.01447567566757
 1 -9.21596376217622 -5.26769355635563 -0.24175243144314
 1 -3.26529666166617 -3.59836142064206 -0.12008866186619
 1 -1.37591868186819 -4.54184256155615  3.40751743874387
 1 -2.91182637003700 -5.80425106750675  3.46492371447145
 1 -1.25613704020402 -5.78830300740074  2.37784448734874
 1  2.68660333143314 -1.61141083098310 -1.55061913821382
 1  2.56919862006201 -0.11322840444044 -1.89995201500150
 1  4.30648987328733 -1.13081108730873  0.54678705490549
 1  4.06935787208721  1.07729882618262 -2.46330967326733
 1  5.34422772117212  2.16440083028303 -2.00100445504550
 1  5.83452877567757  0.77873820402040 -2.95528682798280
 1  6.67754077737774  1.30232646034603  0.18045554325433
 1  6.43316666466647 -0.23834708360836  0.82451345844584
 1  7.39640338243824 -1.41283235493549 -1.05139926862686
 1  7.81078260926093  0.29235611211121 -1.87298744564456
 1  9.17452354955496  1.26358897539754  0.08204216671667
 1  8.92317013981398 -0.56617497289729  0.82254687328733
 1  10.24231594309431  0.00995576187619 -1.61790562116212
 1  9.26892338873887 -2.34319136343634 -1.78061302250225
 1  10.75189827452745 -2.33471998459846 -1.97630381638164
 1  10.27157463106311 -2.68187981058106 -0.55535762646265
 1  11.50375513771377  0.67726213371337  0.09604156755676
 1  11.36217662736274 -0.76271860996100  1.18350582358236
 1  12.76653238893890 -1.58501536293629 -0.81370970587059
 1  12.64620352635264 -0.08240876187619 -1.63935229902990
 1  13.75938744194420  1.03072632813281  0.61917857835784
 1  13.93578966926693 -0.83791622892289  0.96157132683268
 1  15.28586097819782  0.44148400880088 -1.49211887138714
 1  15.61923392439244 -2.33141986788679 -0.27911550915091
 1  15.22611014281428 -1.77035522912291 -1.87233495389539
 1  16.58930698929893 -1.83991792039204 -1.40466257505751
 1  16.08256346604660  1.31275034773477  0.99383280428043
 1  16.38516021802180 -0.30900729642964  1.30144307600760
 1  17.92608180008001 -0.30686765056506 -0.43121912951295
 1  17.51952203340334  1.37009826832683 -1.07524100800080
 1  18.49189787258726  2.18059995959596  1.06524162506251
 1  18.81242752015201  0.56203981528153  1.49648600020002
 1  20.43703377007700  0.27952438823882 -0.44282653225323
 1  20.06762359565957  3.23960294519452 -0.78821909140914
 1  21.39233534743475  2.12694857275728 -1.52088334233423
 1  19.71303213641364  1.91625302760276 -2.03841426472647
 1  21.23350336563656  1.38243754755476  1.98248769036904
 1  22.19972461296130  1.83868239943994  0.68439270547055
 1  20.80462299489949  2.85898957515752  1.38205413661366

