%nproc=4
%Mem=2GB
# td=(NStates=1) CAM-B3LYP/6-31G(d,p) 

TD

0 1
12 -7.28813048234823  0.53217145784578  0.26127417601760
 6 -4.90569945104510 -1.91155326662666  0.57963359825983
 6 -4.85770507680768  2.81136546384638  1.25421887908791
 6 -9.44666925572557  3.00399279867987 -0.33548488148815
 6 -9.49819084668467 -1.71257143214321 -0.91080919591959
 7 -5.12910569216922  0.46793805430543  0.79315683608361
 6 -4.37980558585859 -0.60964158455846  0.87347925072507
 6 -2.95652661386139 -0.22816808890889  1.29338477967797
 6 -3.08358864806481  1.17540867336734  1.75375818221822
 6 -4.46748483518352  1.51578195859586  1.28067432863286
 6 -2.86508429942994  1.25071155845585  3.38568209430943
 6 -2.05504978587859 -0.56371038113811  0.04692401820182
 6 -0.52999125312531 -0.29421765316532  0.53939252215222
 6  0.48528790719072 -0.43827725982598 -0.58830048184818
 8  0.14309485918592 -0.60078148194819 -1.69022830313031
 8  1.76929395439544 -0.33815872267227 -0.13685790589059
 7 -7.16285389388939  2.54811621892189  0.39087424422442
 6 -6.13718084908491  3.22778373227323  0.80001798579858
 6 -6.46188417811781  4.67062769316932  0.83233099759976
 6 -7.80179077447745  4.82680256695670  0.27630453745375
 6 -8.15107566076608  3.40577086838684  0.02958329752975
 6 -5.70180596179618  5.76283737503750  1.39766629182918
 6 -8.66732594499450  6.04938000600060  0.22439246114611
 6 -8.15059425722572  7.28639472377238  0.08902464016402
 7 -9.15398043374337  0.54919139743974 -0.66474818011801
 6 -9.91435309430943  1.72285296789679 -0.69024414861486
 6 -11.26905164806481  1.38808979937994 -1.15200995059506
 6 -11.26995551625162 -0.04790091279128 -1.22963222942294
 6 -9.96485636933693 -0.45901438953895 -0.84784408730873
 6 -12.37852609470947  2.42573485438544 -1.46293682458246
 6 -12.39807985368537 -0.82522358455846 -1.88665384258426
 6 -12.18211454345435 -1.01763564876488 -3.30629873527353
 7 -7.17909416151615 -1.41945130673067 -0.10138325702570
 6 -8.22433765606561 -2.22217815731573 -0.56721452735274
 6 -7.73359102660266 -3.61654583748375 -0.53498192719272
 6 -6.43518904090409 -3.54793910941094 -0.13050554265427
 6 -6.17641241944194 -2.20558671317132  0.16970859225923
 6 -8.51261160586059 -4.87188000690069 -1.01322086908691
 6 -5.21513805150515 -4.31070705600560  0.13404190409041
 8 -4.94365572737274 -5.49895254885489  0.00767680248025
 6 -4.13723713371337 -3.31765469956996  0.63715460746075
 6 -3.58278264246425 -3.67193327792779  2.01249242894289
 8 -3.98052170677068 -3.14213744654465  3.07126084138414
 8 -2.68371971987199 -4.66306445894589  1.84968305630563
 6 -2.26061870037004 -5.39882035133513  3.06507784478448
 6  2.72442621922192 -0.50499975767577 -1.17152252715272
 6  4.22605592799280 -0.45330918031803 -0.58134066276628
 6  5.13546715411541  0.37435075957596 -1.05566546674667
 6  5.07248466506651  1.18758329462946 -2.31891898299830
 6  6.44929138673867  0.52168097499750 -0.29134582078208
 6  7.72277001590159 -0.14274615651565 -1.00462013071307
 6  8.95772485488549 -0.21597133063306 -0.19624221842184
 6  10.21848274127413 -0.65138223652365 -0.94110050445045
 6  10.06294348054806 -2.13417275217522 -1.27794945644564
 6  11.44050516761676 -0.35750664126413 -0.03943374467447
 6  12.82050921992199 -0.57531404730473 -0.76940748054805
 6  13.97862355015502 -0.06584334753475  0.05265247824782
 6  15.37711305530553 -0.14931754345435 -0.60826387668767
 6  15.78591269346935 -1.59389217501750 -0.99577685748575
 6  16.44010726472647  0.37062144824482  0.37490667536754
 6  17.86808251255125  0.48182630843084 -0.20091837173717
 6  18.81993739323933  1.09202104890489  0.68553091479148
 6  20.31506918671867  1.30456620122012  0.32468207180718
 6  20.57150737963796  2.01218686668667 -1.05742156355636
 6  21.08805667976798  1.98572294169417  1.44985168676868
 1 -4.17873813231323  3.34687306900690  1.71294581558156
 1 -10.23219697139714  3.74990257415742 -0.26527082968297
 1 -10.15730499229923 -2.58061811651165 -1.01217476497650
 1 -2.62587127782778 -0.86074573827383  2.07841508010801
 1 -2.21372101010101  1.71508999759976  1.28266263276328
 1 -1.72819654295429  1.30700618961896  3.56759697309731
 1 -3.16255104130413  2.27489694629463  3.75849041654165
 1 -3.33939492069207  0.45337970567057  3.85158904340434
 1 -2.32691521842184 -1.69690561096110 -0.24602958895890
 1 -2.27803200540054 -0.00691860056006 -0.77296239783978
 1 -0.53230032403240  0.91390931443144  1.16572882478248
 1 -0.13871982568257 -0.97250022542254  1.29968284418442
 1 -5.05979814751475  6.41752692779278  0.78746052825283
 1 -6.21629629992999  6.59597939673967  1.95060975017502
 1 -4.82826605540554  5.29225439683968  2.41944562326233
 1 -9.65634313321332  5.71872480858086  0.08973681818182
 1 -8.82472311271127  8.13658224772477  0.39438003130313
 1 -7.22851788838884  7.77111768096810  0.34244977437744
 1 -12.11227664046405  3.04433173847385 -2.31876817521752
 1 -13.27665287878788  1.86033167126713 -1.65791931563156
 1 -12.46493345474548  3.06554964036404 -0.52770426842684
 1 -12.41940446854685 -1.83984638283828 -1.34128433633363
 1 -13.37991399499950 -0.35962977597760 -1.75714307130713
 1 -13.03657412361236 -1.58577981718172 -3.76882988068807
 1 -12.26452662666267  0.02498377247725 -3.80139771477148
 1 -11.24897824542454 -1.56236918091809 -3.53881299679968
 1 -9.00107100300030 -4.63865671397140 -1.89289687108711
 1 -7.85217891889189 -5.75848595679568 -1.10448467656766
 1 -9.21572373817382 -4.84271105810581 -0.06457471367137
 1 -3.13359349134914 -3.31603318781878 -0.02296894989499
 1 -1.84805589558956 -4.51791016831683  3.71838852585258
 1 -2.93986917431743 -5.85228587098710  3.63452067416742
 1 -1.55761718821882 -6.18041221832183  2.78465516841684
 1  2.72409708080808 -1.35862555245525 -1.75302937923792
 1  2.55340704090409  0.31943486188619 -1.99683170297030
 1  4.40964018831883 -0.89370737693769  0.37316969316932
 1  3.95547648394839  1.62831392769277 -2.55840918321832
 1  5.78515181358136  2.00930532073207 -2.27174152875287
 1  5.54688001080108  0.49990032023202 -3.26869816911691
 1  6.51873489678968  1.69145537323732 -0.27011951425143
 1  6.41057440544054  0.01195794689469  0.79510051715172
 1  7.51647538963896 -1.08151922362236 -1.17320144884488
 1  7.99217074807481  0.46123299979998 -1.93887403430343
 1  9.25842193939394  0.65987860436044  0.57715167766777
 1  8.82066988978898 -0.92794114951495  0.60519513811381
 1  10.26308802030203  0.11719648594859 -1.79678350895089
 1  9.31912840924092 -2.10083712801280 -2.11027598879888
 1  10.92318540324032 -2.60732724532453 -1.93711989798980
 1  9.86393386698670 -2.85405702830283 -0.41485357605761
 1  11.36509127132713  0.58247265476548  0.31566352975297
 1  11.66841725142514 -1.04660699879988  0.81130860386039
 1  13.02639837553755 -1.75451231263126 -0.73550188508851
 1  12.95815472147215 -0.13613413441344 -1.68131649544954
 1  13.86570807400740  1.00429368486849  0.47574423492349
 1  14.11777786808681 -0.48092052935294  1.06974214391439
 1  15.22171456355636  0.53057291769177 -1.55650531003100
 1  15.79356135713571 -2.17600432633263 -0.18024562216222
 1  15.18357588938894 -1.82363055665567 -1.90150787118712
 1  16.86101416001600 -1.82301623022302 -1.47510961976198
 1  16.29024423412341  1.46548562126213  0.68286170717072
 1  16.36155785778578 -0.15592198789879  1.20078301000100
 1  18.43066225812581 -0.40800776457646 -0.58652466006601
 1  17.66679676087609  1.01547280578058 -1.19439292319232
 1  18.59349803260326  2.14767666726673  0.99805490639064
 1  18.78527480488049  0.52939655095510  1.56538288988899
 1  20.66747681438144  0.32789922572257  0.32698044844484
 1  20.25033186648665  2.99725871077108 -1.04248451795180
 1  21.62444855875588  2.12604848274828 -1.30194144814481
 1  20.21133196639664  1.51411281358136 -1.86062648594859
 1  20.85683569886989  1.61839114291429  2.37716715831583
 1  22.22105674617462  2.06016454765477  1.23397766396640
 1  20.86808934153416  3.13312698889889  1.64706063726373

