%nproc=4
%Mem=2GB
# td=(NStates=1) CAM-B3LYP/6-31G(d,p) 

TD

0 1
12 -7.16822849214921  0.59925816651665 -0.04024597599760
 6 -4.83754263536354 -1.91823393469347  0.52167780268027
 6 -4.91168047434743  2.77611193849385  1.18524198139814
 6 -9.45792038083808  3.12965536493649 -0.37829916291629
 6 -9.53367439503950 -1.69227940294029 -0.79462757775778
 7 -5.09064184578458  0.38971023152315  0.75794331473147
 6 -4.29605721102110 -0.68506912731273  0.85124702750275
 6 -2.91329229042904 -0.43762903500350  1.27542298349835
 6 -3.02682297149715  1.08901003350335  1.71745455185519
 6 -4.42056014271427  1.50061044144414  1.14770103130313
 6 -2.93849164016402  1.16782326962696  3.15705923202320
 6 -1.92515679657966 -0.56700071017102  0.11985131093109
 6 -0.56700495449545 -0.42503073447345  0.59026760966097
 6  0.45530490889089 -0.77545097719772 -0.54247589938994
 8  0.18247879757976 -1.23742514631463 -1.60010929122912
 8  1.73505053005301 -0.43748865566557 -0.13878809890989
 7 -7.16013362186219  2.64114552185219  0.22548770557056
 6 -6.12169930093009  3.39868082198220  0.78448643264326
 6 -6.46660465016502  4.78743937433743  0.78295606010601
 6 -7.72710330573057  4.93093297999800  0.32965987298730
 6 -8.12715326852685  3.52157244854485  0.02762310151015
 6 -5.57549333053305  5.80458154945495  1.53765029022902
 6 -8.71339055145515  6.06981204920492  0.36318634053405
 6 -8.23072227002700  7.36421250555056  0.18368410611061
 7 -9.16273130883088  0.64537101540154 -0.54094579987999
 6 -9.86037769676968  1.81361204380438 -0.65736086028603
 6 -11.23560830373037  1.43109409980998 -1.05054980458046
 6 -11.30414893559356  0.07959183648365 -1.21934120032003
 6 -9.97405728942894 -0.39441792989299 -0.92661196409641
 6 -12.21397964006401  2.50721300220022 -1.42315284618462
 6 -12.49622966866687 -0.81711277347735 -1.73598877607761
 6 -12.33785011701170 -1.07205109030903 -3.21057916331633
 7 -7.22722897499750 -1.43576293789379 -0.14761788048805
 6 -8.28410363266327 -2.16596253575358 -0.49728753465347
 6 -7.89839750725072 -3.57527171007101 -0.47319574857486
 6 -6.63979950195020 -3.55476979247925 -0.04056654875488
 6 -6.18139291749175 -2.23287944244424  0.10686230763076
 6 -8.79516986168617 -4.74947776667667 -0.77585713271327
 6 -5.44788132583258 -4.32210819611961  0.33217171707171
 8 -5.25695705750575 -5.58052070567057  0.07864389918992
 6 -4.26442985298530 -3.27246018011801  0.60889178117812
 6 -3.52094645884588 -3.68761484608461  1.83200438013801
 8 -3.69309296389639 -3.12680591339134  2.97759147444744
 8 -2.79139048694870 -4.79140729322932  1.72098018601860
 6 -2.12364500300030 -5.32285275457546  2.83607494449445
 6  2.81135491209121 -0.78722798049805 -1.15921129602960
 6  4.13061638403840 -0.59085293469347 -0.57722025072507
 6  5.11902550995099  0.18324164866487 -1.00190009020902
 6  5.06237365396540  1.11150568686869 -2.24127121822182
 6  6.42704916251625  0.24023283018302 -0.28876556275628
 6  7.70406814571457 -0.14561644354435 -1.16932660136014
 6  8.90395947834783 -0.10987072057206 -0.25205779998000
 6  10.28504939793979 -0.51688878717872 -1.01149754415442
 6  10.23692087828783 -1.91019035393539 -1.51406306780678
 6  11.45004612171217 -0.30675156575658  0.03386358505851
 6  12.90317748674867 -0.32129864576458 -0.67096763656366
 6  14.10704639243924  0.06923015981598  0.21751896489649
 6  15.42614795879588 -0.17134974667467 -0.41498454875488
 6  15.69335343754375 -1.61429421522152 -0.71238851865187
 6  16.58277153115311  0.43699808590859  0.45587477217722
 6  17.95109081338134  0.68776690249025 -0.26565484538454
 6  18.97564296379638  1.33923577037704  0.61075343704370
 6  20.41110879067907  1.36369211381138  0.20591019461946
 6  20.55166539543954  2.26643229122912 -0.99964578597860
 6  21.19756763086309  1.86607097649765  1.44269097069707
 1 -4.07522778127813  3.47858624032403  1.58464298529853
 1 -10.17268101980198  4.01293887778778 -0.49871417401740
 1 -10.37510677247725 -2.44500455515552 -0.89588313581358
 1 -2.71812050275028 -1.04763442714271  2.12472971157116
 1 -2.26851648964897  1.56552504110411  1.25460982748275
 1 -1.78075179847985  1.21055654465447  3.29843005640564
 1 -3.38176296249625  2.32038149474947  3.67278184568457
 1 -3.51591257245725  0.22073644134413  3.43837772227223
 1 -2.17779030593059 -1.55546146654666 -0.22852783878388
 1 -2.05890009220922  0.26276836813681 -0.63363846544654
 1 -0.40800789478948  0.59528745224522  0.81371362326233
 1 -0.39414536823682 -0.87901087648765  1.57886076197620
 1 -4.78873104080408  6.00101527662766  0.90404218641864
 1 -6.33007767806781  6.60066986578658  1.82292698189819
 1 -5.07302053085309  5.21939711111111  2.32774645334533
 1 -9.63203070197020  5.92796573267327  0.73079092359236
 1 -9.03350399079908  8.10459904940494  0.41880247354735
 1 -7.17165220182018  7.37081765096510 -0.19436390699070
 1 -11.96792220502050  3.02944024932493 -2.27814411281128
 1 -13.21306652015202  1.95150078817882 -1.78365188888889
 1 -12.13414037543754  3.13280636603660 -0.43947544554455
 1 -12.69126165426543 -1.73513591179118 -0.97605781368137
 1 -13.42689869346935 -0.18538235123512 -1.55464282128213
 1 -13.31334180038004 -1.61329256845685 -3.65608860656066
 1 -12.34564473847385 -0.04908363426343 -3.77394496949695
 1 -11.39084243184318 -1.49820276427643 -3.63316243174317
 1 -9.68537943384338 -4.62774562286229 -1.78697627902790
 1 -8.19804350535053 -5.55774588278828 -0.77172140024002
 1 -9.47442960876088 -4.72021880888089  0.02711445524552
 1 -3.55455558755876 -3.65954753925392 -0.02961961496150
 1 -1.35554664466447 -4.79615799309931  3.28652533953395
 1 -2.95854104150415 -5.73357399979998  3.65456267836784
 1 -1.72725415191519 -6.07892206930693  2.34349105200520
 1  2.47627229832983 -1.93526321622162 -1.44946902320232
 1  2.71883358355836 -0.09507658925893 -2.06984900470047
 1  4.46863608790879 -1.15884389058906  0.23005538173817
 1  4.09227016331633  1.40917201350135 -2.81361470377038
 1  5.46510980938094  2.14871926212621 -2.15747010161016
 1  5.72858818161816  0.84066439663966 -3.00795209450945
 1  6.44169719301930  1.23822004970497 -0.23143564586459
 1  6.61128447644764 -0.49019226812681  0.63773478057806
 1  7.69437317941794 -1.30042111381138 -1.53478760746075
 1  7.83879541054105  0.50317719421942 -1.78282842974297
 1  9.05371146834683  0.77152976947695  0.22854681718172
 1  8.75147297009701 -0.53316167156716  0.71064568316832
 1  10.53905561706171  0.14046881318132 -1.86345017561756
 1  9.42541903830383 -2.03849089338934 -2.10543550475047
 1  11.14633771847185 -2.21404791739174 -2.02417860386039
 1  10.00571804540454 -2.70365198779878 -0.70764285498550
 1  11.33575833803380  0.73090749824982  0.62517448084808
 1  11.36511692139214 -1.15241757985799  0.95549302230223
 1  13.07666340204020 -1.42555941734173 -0.82479081398140
 1  12.93748265426543  0.39923940294029 -1.61513987778778
 1  14.19375087828783  1.19964321982198  0.48464512501250
 1  13.84184027432743 -0.77511994929493  1.06332150185018
 1  15.30241263336334  0.22529238963896 -1.54481414091409
 1  15.85820782178218 -2.27461418731873  0.02446484888489
 1  14.80833836563656 -2.26304449804980 -1.21958967936794
 1  16.55416347494750 -1.65237916651665 -1.35384749354935
 1  16.35158036773677  1.37278635133513  0.82110553155315
 1  16.91371307330733 -0.34066046174617  1.24261719341934
 1  18.13240243214322 -0.39335629942994 -0.82978898649865
 1  17.70760084128413  1.21233249174917 -1.05896938083808
 1  18.50124880768077  2.34742664226423  0.88119322022202
 1  18.71620789818982  0.95918953025303  1.69588594019402
 1  20.84150421712171  0.28347478327833  0.05004275467547
 1  20.08316514981498  3.21341032593259 -0.80599086858686
 1  21.63492960686069  2.46909278717872 -1.32576383038304
 1  19.92470330353035  1.86391779407941 -1.86495691899190
 1  21.06179619491949  1.07709701350135  2.33250269186919
 1  22.22613725422542  1.95724425562556  1.12976724292429
 1  20.84742727532753  2.86523019921992  1.93219915111511

