%nproc=4
%Mem=2GB
# td=(NStates=1) CAM-B3LYP/6-31G(d,p) 

TD

0 1
12 -7.18919058835884  0.55866410711071  0.16482453105311
 6 -4.82188106920692 -2.01150326162616  0.51343697859786
 6 -4.80639994629463  2.83737806510651  1.17705116231623
 6 -9.47076166496650  3.02666506590659 -0.28442977597760
 6 -9.55405643324332 -1.84088426342634 -0.71305942094209
 7 -5.08940172177218  0.45736699719972  0.69976749714972
 6 -4.29809741504150 -0.72345296569657  0.75240714351435
 6 -2.91053201440144 -0.28437370947095  1.19882532373237
 6 -3.04498478767877  1.12823395589559  1.72222502890289
 6 -4.39411749844985  1.55559593999400  1.15760202140214
 6 -3.09135692669267  1.33746023332333  3.23734726082608
 6 -1.90130441134113 -0.43437744784478  0.04482380818082
 6 -0.42777103110311 -0.13596182758276  0.51326990989099
 6  0.59432881128113 -0.47997142924292 -0.65190684248425
 8  0.25131568126813 -0.79778118191819 -1.79598887918792
 8  1.75849287428743 -0.30271517831783 -0.22339655975598
 7 -7.17037464596460  2.54355576287629  0.37226238303830
 6 -6.10185731673167  3.28557951185119  0.77951593559356
 6 -6.46576456615662  4.70185081548155  0.91797956245625
 6 -7.78626922232223  4.81384127082708  0.39269617661766
 6 -8.22994354755475  3.47901819311931  0.16757709690969
 6 -5.68794457565757  5.90191128242824  1.31885841104110
 6 -8.73994320672067  5.93061812981298  0.25943596549655
 6 -8.30268946674667  7.19179526382638  0.00886662436244
 7 -9.21350638633863  0.55541201950195 -0.49955166046605
 6 -9.91236289528953  1.69254993759376 -0.63536866106611
 6 -11.16707145004501  1.39490048044804 -1.06100084968497
 6 -11.23172169286929 -0.02347847054705 -1.16460572677268
 6 -9.92389227292729 -0.45805429352935 -0.86458576147615
 6 -12.24797303940394  2.43763604450445 -1.43983451435144
 6 -12.39697974367437 -0.75822688488849 -1.68178335553555
 6 -12.30311664366437 -1.12544642984298 -3.22486059145915
 7 -7.23342959505951 -1.47926728832883 -0.07685080378038
 6 -8.32337756005601 -2.29600554005401 -0.46770457635764
 6 -7.77533520102010 -3.67049123202320 -0.48058648764876
 6 -6.49400492249225 -3.54244856035604 -0.14246673877388
 6 -6.19486426462646 -2.25245139963996  0.12052367376738
 6 -8.69918026272627 -4.78092091099110 -0.78942848984898
 6 -5.31023756145615 -4.40200618591859  0.11564006390639
 8 -5.07983934573457 -5.57222987658766  0.01349738453845
 6 -4.23778718871887 -3.36904983908391  0.63167405940594
 6 -3.50213457765777 -3.73830991559156  1.92213339303930
 8 -3.76248990359036 -3.13733696649665  2.87971168646865
 8 -2.63719506740674 -4.79541769426943  1.71461954995500
 6 -2.08073071157116 -5.26499696899690  2.90805214221422
 6  2.81730550715071 -0.40818007570757 -1.25447082198220
 6  4.09704302670267 -0.18399224862486 -0.51533406210621
 6  5.13344695209521  0.49469279377938 -0.98581848204820
 6  5.17282469906991  1.41329586588659 -2.16119321042104
 6  6.42736919451945  0.46084489138914 -0.22198888508851
 6  7.65738347724772 -0.10471235313531 -1.01054072277228
 6  8.88950803320332 -0.10420015351535 -0.19012160636064
 6  10.29710060306031 -0.47903500180018 -0.99441583598360
 6  10.16819400560056 -1.94009334423442 -1.42481414291429
 6  11.43521463856386 -0.25854674527453 -0.04477427872787
 6  12.75503267226723 -0.41924844074407 -0.68277881768177
 6  13.96191187898790 -0.15012177537754  0.21673888688869
 6  15.33043838783878 -0.37094970667067 -0.47882093239324
 6  15.76772087428743 -1.80778356415642 -0.65858313811381
 6  16.40918417241724  0.28797318341834  0.46692587728773
 6  17.83655936023602  0.39731785758576 -0.08025630553055
 6  18.86114151365136  1.24798664546455  0.78863122482248
 6  20.26408408820882  1.25524126872687  0.22249185278528
 6  20.25701593049305  2.01281692969297 -1.14314013541354
 6  21.25997387148715  1.72777714711471  1.23179988158816
 1 -4.08690894939494  3.50304868656866  1.72197671867187
 1 -10.07130088178818  3.78697628152815 -0.40319462206221
 1 -10.29038830063006 -2.67344739943994 -1.07509105660566
 1 -2.67761645234524 -0.96633629732973  2.23521075967597
 1 -2.30765040304030  1.73817230583058  1.44124849134914
 1 -2.00810453375338  1.11243673267327  3.72124233763376
 1 -3.27576236243624  2.26374583118312  3.30622519001900
 1 -3.83117409860986  0.75675004270427  3.99964384888489
 1 -1.95215774267427 -1.50991691209121 -0.37933291929193
 1 -2.19191339353935  0.23932602390239 -0.70878598019802
 1 -0.18130522452245  0.83756167966797  1.01207345924592
 1 -0.06880283398340 -0.83960693609361  1.16810968686869
 1 -4.77397956565657  5.96219139423942  0.48103988618862
 1 -6.16596126642664  6.90338013681368  1.54713940314031
 1 -5.01375460426043  5.55799097049705  2.06761043974397
 1 -9.95023252215221  5.69443237933793  0.52454029852985
 1 -9.06228686908691  7.99845843534353 -0.13398280498050
 1 -7.25361039763976  7.34908547774778 -0.21715618621862
 1 -12.00003541634164  3.11937924322432 -2.30468676707671
 1 -13.26199141264126  2.09913555165517 -1.76090961466147
 1 -12.49402636403640  3.11301438683868 -0.62522402040204
 1 -12.63598612671267 -1.58935133333333 -1.23646385428543
 1 -13.28080408400840 -0.11296510951095 -1.43115047204720
 1 -13.16518698489849 -1.61368260746075 -3.68943194089409
 1 -12.34019419341934 -0.25463418931893 -3.96173374837484
 1 -11.53534688228823 -1.82472541654165 -3.57301641714171
 1 -9.19494038993899 -4.95582843114311 -1.77758533993399
 1 -8.07267096809681 -5.71295140334033 -0.54539876797680
 1 -9.72175434123412 -4.96464325132513  0.03443518731873
 1 -3.37807793979398 -3.24377596209621 -0.12796944994499
 1 -1.53919500950095 -4.64009238653865  3.50691737873787
 1 -2.95275046244624 -5.38090873327333  3.55707292939294
 1 -1.47145857235724 -6.13677785488549  2.70098680158016
 1  2.82341701280128 -1.28220791069107 -1.88809288558856
 1  2.72279397959796  0.54679759815982 -1.90659267906791
 1  4.35996522082208 -0.80809881608161  0.39975235143514
 1  4.29241017731773  1.48117921422142 -2.56814015631563
 1  5.53337663606361  2.51547593779378 -2.26122047664766
 1  5.83964928772877  0.93797412761276 -2.95784708400840
 1  6.57958098139814  1.40345657335734  0.18730622832283
 1  6.24673802180218 -0.06005925482548  0.56315732283228
 1  7.46809055115512 -1.00499157085709 -1.64006813551355
 1  7.70490202120212  0.81899877637764 -1.66096624352435
 1  9.06013211041104  0.99177179367937  0.39121308380838
 1  8.84179200200020 -0.97379573497350  0.63979859845985
 1  10.50424213571357  0.27844261056106 -1.88056188678868
 1  9.25868236463646 -2.15849289358936 -2.21007596879688
 1  11.12903598829883 -2.33240975357536 -1.88682486848685
 1  9.96322379597960 -2.60924254685469 -0.54293638433843
 1  11.32249701190119  0.81466587408741  0.50402236563656
 1  11.22071248094809 -1.14641697979798  0.60171764476448
 1  12.66323205890589 -1.29393625502550 -1.28332666756676
 1  13.03225213121312  0.40463994299430 -1.43596195999600
 1  13.86563806700670  0.89360261576158  0.51018767926793
 1  13.95129121942194 -0.76816925422542  1.05559072877288
 1  15.33874626672667  0.07138699909991 -1.59001866136614
 1  16.03473547454746 -2.42198892479248  0.36706910931093
 1  14.98834636643664 -2.28209640324032 -1.22807052745275
 1  16.79338739733974 -1.83697762636264 -1.17119922872287
 1  16.06826203590359  1.37358643134313  0.64760818181818
 1  16.71041274327433 -0.03297969366937  1.44055698739874
 1  18.32874206610661 -0.62571953575358 -0.20846685428543
 1  17.86010609180918  0.80861211971197 -1.02198568246825
 1  18.51716039883988  2.27334923452345  0.73724882578258
 1  18.85364164156416  0.97869148044804  1.95275162676268
 1  20.56357642434243  0.24341077687769  0.15440319071907
 1  20.00024685798580  3.05301428632863 -0.97034730423042
 1  21.46540265416542  1.99872575047505 -1.49602085608561
 1  19.69094992819282  1.40836223852385 -1.99897032033203
 1  21.12835285058506  1.24857416121612  2.20531997359736
 1  22.21855649614961  1.70166869806981  1.02608687488749
 1  20.97837036963696  2.80242391859186  1.59410534173417

