%nproc=4
%Mem=2GB
# td=(NStates=1) CAM-B3LYP/6-31G(d,p) 

TD

0 1
12 -7.09467113641364  0.58806704740474  0.10660870947095
 6 -4.83355223632363 -1.97881999329933  0.56898253315332
 6 -4.73792309860986  2.76376070337034  1.14293775097510
 6 -9.38120270907091  3.20497289668967 -0.36930826382638
 6 -9.47495852345235 -1.65819599459946 -0.81449956495650
 7 -5.09809259085909  0.40483174367437  0.66848436883688
 6 -4.31894950025003 -0.82179279967997  0.72425432823282
 6 -2.92083304450445 -0.46152142424242  1.28117355855586
 6 -3.00999128832883  1.00704183668367  1.69205201160116
 6 -4.36751483818382  1.47960834123412  1.26203246444644
 6 -2.96627441844184  1.24928141544154  3.25329885598560
 6 -2.02720700160016 -0.71723573367337  0.02841216701670
 6 -0.44537279127913 -0.41524975637564  0.53382196509651
 6  0.44055343374337 -0.80097352945295 -0.56654830663066
 8  0.21745229492949 -1.09736113991399 -1.69107838813881
 8  1.79621664666467 -0.54908981578158 -0.17506172627263
 7 -7.07569517801780  2.63226463376338  0.42818797559756
 6 -5.91483861486149  3.28570952485249  0.69610759475948
 6 -6.31668965866587  4.74322495289529  0.93388115261526
 6 -7.71849244464446  4.80538042474247  0.58063497049705
 6 -8.17770832403240  3.50376066736674  0.27966830603060
 6 -5.43478926012601  5.84553564486449  1.33626015121512
 6 -8.51805101750175  6.01421648964897  0.30865088698870
 6 -8.10078927672767  7.25549163346335  0.22456819451945
 7 -9.06135117081708  0.75841231953195 -0.46979868516852
 6 -9.81094275327533  1.90249093169317 -0.64267939213921
 6 -11.14760950385039  1.50009099949995 -1.12446719631963
 6 -11.17036555725572  0.15939981728173 -1.29557882408241
 6 -9.92670255395540 -0.34567305540554 -0.75855515841584
 6 -12.23351159325933  2.45608788968897 -1.38451898279828
 6 -12.33858390409041 -0.74566562876288 -1.87029220642064
 6 -12.17934426642664 -0.97844172937294 -3.35542364776478
 7 -7.29672592469247 -1.43994335593559 -0.14386750545055
 6 -8.33469869216922 -2.19972591209121 -0.58539634553455
 6 -7.87362503000300 -3.61062524542454 -0.56727515651565
 6 -6.52751827382738 -3.46586090159016 -0.20758325042504
 6 -6.29686446464646 -2.08965512001200  0.04811643304330
 6 -8.63087343204320 -4.81482430133013 -0.85909545654565
 6 -5.45259179687969 -4.36632261756176  0.15518401830183
 8 -5.19586094789479 -5.57616026962696  0.33168920372037
 6 -4.15658906890689 -3.40626356045605  0.64667555955596
 6 -3.56279064326433 -3.73618970357036  1.97945912561256
 8 -3.75900955555556 -3.21309454225422  3.05756947224722
 8 -2.66141748964897 -4.71002915541554  1.84084217221722
 6 -2.06992963146315 -5.16836730603060  3.08534987198720
 6  2.73931770837084 -0.71023028072807 -1.23794916981698
 6  4.08156147854786 -0.50384423382338 -0.61461399009901
 6  5.04108771617162  0.23777710221022 -1.17808770897090
 6  5.03942135873587  0.98052258855886 -2.48941603270327
 6  6.40025648324832  0.31919072597260 -0.44868155435544
 6  7.59544728362836 -0.33298518041804 -1.16799646834683
 6  8.86593567596760 -0.11990172367237 -0.30883347754775
 6  10.14657555055506 -0.42144924322432 -1.08982537693769
 6  10.16361354755476 -1.93721305620562 -1.49628128962896
 6  11.45342645974597 -0.18691958255826 -0.13482328362836
 6  12.76965413441344 -0.41894841074107 -0.82615315511551
 6  14.01062675047505 -0.03446020922092  0.14994220722072
 6  15.33412875687569 -0.10143275497550 -0.51957500780078
 6  15.67801190339034 -1.65740852665267 -0.79792707250725
 6  16.28278153215321  0.59701408750875  0.39406859155916
 6  17.70935663996400  0.62377050285029 -0.08312659255926
 6  18.70214561406141  1.34673652045205  0.86712907460746
 6  20.19760744054405  1.35757150175018  0.41505110871087
 6  20.24066429532953  2.26350199819982 -0.88677449884989
 6  21.07276515061506  1.89804417381738  1.48880558215822
 1 -3.98013827232723  3.42426080778078  1.40980550155016
 1 -9.89838359005901  4.15344292819282 -0.52165646824682
 1 -10.37623688548855 -2.33633368806881 -1.18636218371837
 1 -2.86313500420042 -0.93592325602560  2.16129336793679
 1 -2.23649328732873  1.71180966956696  1.22570693719372
 1 -1.96992071537154  1.08497398639864  3.78033824722472
 1 -3.32236702290229  2.17251670827083  3.62771733923392
 1 -3.72995397659766  0.61752612031203  3.90253413791379
 1 -2.31484401130113 -1.79474539493949 -0.27379236523652
 1 -2.06050025222522 -0.17982589128913 -0.83875897749775
 1 -0.33286038003800  0.66179410291029  0.86806905880588
 1 -0.47878383208321 -1.13171614701470  1.39632250815082
 1 -4.54392656035604  6.06316149124913  0.52814459665967
 1 -5.94987965826583  6.81911170997100  1.70167485668567
 1 -5.05850907970797  5.45611078247825  2.25448912761276
 1 -9.61825932483248  5.84200713681368  0.37496534103410
 1 -8.98513915431543  8.05684427392739 -0.18140754745475
 1 -7.04416945354535  7.44419498869887 -0.13974844544454
 1 -11.82912832563256  3.15608291359136 -2.16561285968597
 1 -13.11652686618662  2.09144478257826 -1.75954947864786
 1 -12.33396035743574  3.25676876227623 -0.34699619761976
 1 -12.37914044214421 -1.65451784998500 -1.29356956485649
 1 -13.42609861346135 -0.26615042804280 -1.55958331533153
 1 -13.16918738493849 -1.83516475567557 -3.49397239493949
 1 -12.58059823382338 -0.17315604150415 -3.98346592159216
 1 -11.21300464806481 -1.44061700570057 -3.59056817231723
 1 -9.24848574447445 -4.85526837513751 -1.78408598999900
 1 -7.94288798979898 -5.61677178537854 -0.98821304940494
 1 -9.42536470227023 -5.17067385438544 -0.10560881708171
 1 -3.40472060406041 -3.41426301080108 -0.10308696169617
 1 -1.47200829082908 -4.38097647494749  3.44009069606961
 1 -2.75931111851185 -5.43329397179718  3.81625884798480
 1 -1.38185961246125 -5.88902307940794  2.88596529942994
 1  2.66671134223422 -1.55940563046305 -1.65509958625863
 1  2.59997169736974 -0.11006808840884 -1.93891591139114
 1  4.16684590889089 -1.00882888908891  0.40706308250825
 1  3.91718265456546  1.03339443574357 -2.84886822912291
 1  5.32571586998700  1.97845223542354 -2.32411676627663
 1  5.76544186698670  0.50278060826083 -3.23020431973197
 1  6.73564658795880  1.37743397109711 -0.24389689198920
 1  6.20959430743074 -0.19768301720172  0.60460146724673
 1  7.29723346544654 -1.41007207890789 -1.46538066676668
 1  7.68928045904591  0.07378425492549 -2.08323847074707
 1  8.78376447364736  0.96910952745275  0.03983794629463
 1  8.75444326712671 -0.73224157955796  0.61841646024602
 1  10.31011272277228  0.25379014531453 -1.88717254785479
 1  9.44161065746575 -2.13384042834283 -2.26139110031003
 1  10.94278736343634 -2.27306381898190 -2.00877706370637
 1  10.07266474007401 -2.60524214681468 -0.70436252695270
 1  11.43818858105810  1.01612602010201  0.21018298169817
 1  11.31977238693869 -0.73566590469047  0.79017649064906
 1  12.82938867456746 -1.35483234463446 -1.24874320922092
 1  12.89576848284828  0.12041152015202 -1.79177754155416
 1  13.65139664286429  0.87718097359736  0.47436409690969
 1  13.84406049634963 -0.63314575187519  0.89265443514351
 1  15.52970536263626  0.28464832523252 -1.54377403690369
 1  15.67293929492949 -2.31243796969697  0.08864126652665
 1  15.09877740954095 -1.82812100570057 -1.59415713611361
 1  16.59892795139514 -1.77190111871187 -1.25178728752875
 1  15.89780499019902  1.43868294099410  0.93050647164716
 1  16.46035773777378 -0.15868226392639  1.21652458415842
 1  18.11530072197220 -0.39295625942594 -0.21123713131313
 1  17.80762084328433  1.07067832633263 -1.00267375127513
 1  18.32506118891889  2.48919081868187  1.26050115101510
 1  18.58408468586859  0.83424703600360  1.83696004760476
 1  20.22483254995499  0.30186662246225  0.31873962436244
 1  20.04816164946495  3.43284226912691 -0.67734800430043
 1  21.09067518141814  2.15791166906691 -1.24252550655065
 1  19.63423425662566  1.85133653595360 -1.72252267556756
 1  21.06107612291229  1.11067037083708  2.25978542014201
 1  22.23732837333733  2.07210574177418  1.05641990819082
 1  20.94055658825883  2.99990366656666  1.88375430663066

