%nproc=4
%Mem=2GB
# td=(NStates=1) CAM-B3LYP/6-31G(d,p) 

TD

0 1
12 -7.16693836313631  0.67766600730073  0.03823187178718
 6 -4.85550443154315 -1.96130824212421  0.55845148004800
 6 -4.69653896019602  2.85181950925092  1.19857331453145
 6 -9.36846143494349  3.09592199159916 -0.29667100010001
 6 -9.50554158175817 -1.70086026102610 -0.90761887688769
 7 -5.05454823642364  0.45598685918592  0.65157267766777
 6 -4.31321892719272 -0.73195381578158  0.80416231903190
 6 -2.90308126932693 -0.36692196429643  1.27094253545355
 6 -2.95964625382538  1.11912304480448  1.66365917231723
 6 -4.30824891159116  1.42959333973397  1.18750501170117
 6 -2.77801559255926  1.12337882518252  3.10460398649865
 6 -1.94943922482248 -0.66190020012001  0.14742406820682
 6 -0.47926618061806 -0.45384361576158  0.50422900580058
 6  0.53117249564957 -0.79370280238024 -0.55947759955996
 8  0.25362591229123 -1.14219562336234 -1.67428670897090
 8  1.82031905690569 -0.41165607240724 -0.11562578267827
 7 -7.09428703720372  2.61509291659166  0.32759791659166
 6 -5.99736686768677  3.29680063396340  0.83516150015002
 6 -6.37505549524953  4.70116074647465  0.97068483298330
 6 -7.65284587998800  4.86180606730673  0.52575948294829
 6 -8.08261881508151  3.45104539583958  0.17244758395840
 6 -5.45690147134713  5.73632472377238  1.46984350955095
 6 -8.50305951835184  5.96406147414741  0.30842086398640
 6 -8.13145234303430  7.15872195649565  0.10587632533253
 7 -9.07110214591459  0.65372185048505 -0.50917262256226
 6 -9.80119177817782  1.78719940254025 -0.61833695789579
 6 -11.16326106900690  1.60464145454545 -1.15045979557956
 6 -11.23171169186919  0.14853873117312 -1.30472973917392
 6 -9.85151503520352 -0.34274276237624 -1.00723002590259
 6 -12.30116835893589  2.47722000290029 -1.41116164706471
 6 -12.35282532823282 -0.58882994519452 -1.80054523172317
 6 -12.12266859885989 -0.92856674187419 -3.37560566596660
 7 -7.17691394349435 -1.36505586718672 -0.29279239793979
 6 -8.24708993129313 -2.13430937043704 -0.57105491139114
 6 -7.90379804730473 -3.58713289618962 -0.51274970397040
 6 -6.52420794279428 -3.54142845834583 -0.04609710181018
 6 -6.24122890109011 -2.21661781628163  0.10857247864786
 6 -8.77200754545454 -4.73143596249625 -0.85559510651065
 6 -5.47870440814081 -4.37275326062606  0.25293379327933
 8 -5.35922728452845 -5.61114376797680  0.14157019181918
 6 -4.27149055905591 -3.39268220232023  0.57476836883688
 6 -3.64900926512651 -3.75625170977098  1.99567074677468
 8 -3.83560721532153 -3.20857409020902  3.00793450875088
 8 -2.84781612951295 -4.87737589008901  1.83995208320832
 6 -2.23153579207921 -5.37571804110411  3.08692002900290
 6  2.84143792039204 -0.97412667036704 -1.17935331023102
 6  4.17670099249925 -0.57456130553055 -0.49110163886389
 6  5.00353396079608  0.27923124762476 -1.05324522472247
 6  4.98616603320332  1.03237777407741 -2.37275436653665
 6  6.41584804240424  0.51537034393439 -0.32230891709171
 6  7.59979771867187 -0.01560344224422 -1.08772844154415
 6  8.94386346874687 -0.01952168566857 -0.21141373557356
 6  10.18003889688969 -0.55717281558156 -0.93923031743174
 6  10.00124731093109 -2.08966830173017 -1.25646730823082
 6  11.37513863096310 -0.24042493309331 -0.08043784508451
 6  12.79535670467047 -0.47027354325433 -0.73075361516152
 6  13.97764345214521 -0.09543630683068  0.14384159715972
 6  15.38309365336534 -0.27415002670267 -0.40297334763476
 6  15.74398850105011 -1.62493527932793 -0.80776805660566
 6  16.55111836583658  0.40366475257526  0.47533671837184
 6  17.89329503380338  0.46029415521552 -0.18418669856986
 6  18.64724012351235  1.27640948774878  0.78629099079908
 6  20.18016569636964  1.58029377397740  0.15280488408841
 6  20.21323155205521  2.42080772877288 -1.07019284068407
 6  21.12643051715172  2.18729309870987  1.19965666726673
 1 -4.03883414191419  3.69058744044404  1.61988650965097
 1 -10.13190694239424  3.96208379227923 -0.44064836743674
 1 -10.31107036883688 -2.33640369506951 -1.28751229872987
 1 -2.64095278597860 -0.99825948964896  1.89960719931993
 1 -2.29461909990999  1.70744923352335  1.27440180668067
 1 -1.86260998429843  0.94175966496650  3.65937615101510
 1 -2.98328311451145  2.19145860246025  3.58445301280128
 1 -3.66541752295229  0.58594296199620  3.76334021852185
 1 -2.02659518641864 -1.66193211361136 -0.31791677767777
 1 -2.12398660086009  0.12823491479148 -0.72932803440344
 1 -0.16985407940794  0.65638356185619  0.74557680958096
 1 -0.24329028272827 -1.00350332573257  1.36951982788279
 1 -4.60829299699970  6.10263543864386  0.81614339653965
 1 -6.05279995029503  6.48256805560556  1.78942363156316
 1 -4.74240746954695  5.40668583998400  2.45706938563856
 1 -9.61985948484848  5.84426736283628  0.70946879137914
 1 -8.89971061146115  8.11398998849885  0.38506910021002
 1 -7.11775681228123  7.37730830003000  0.04307983738374
 1 -11.79924533733373  3.33029033433343 -2.12568886728673
 1 -13.15880109360936  1.86324196229623 -1.79631315501550
 1 -12.16313327472747  3.03436652205220 -0.27850934893489
 1 -12.44573710181018 -1.44854725292529 -1.27760796869687
 1 -13.34588059165917 -0.02859667266727 -1.78949630663066
 1 -12.88766923312331 -1.50909214841484 -3.90165316301630
 1 -12.25785595959596 -0.05099382528253 -3.94648222322232
 1 -11.18849219681968 -1.30895383938394 -3.70433954945495
 1 -9.16261715761576 -4.69519236753675 -1.87515509690969
 1 -8.17739144014401 -5.59474958315832 -0.58754298239824
 1 -9.63199536533653 -5.03589037603760 -0.19199745594559
 1 -3.42874300630063 -3.63188477297730  0.04064741174118
 1 -1.61922301230123 -4.71194957225723  3.71174786178618
 1 -3.26292147954796 -5.56371701410141  3.67301452355236
 1 -1.63332475897590 -6.30633481058106  2.81062776567657
 1  2.65637030813081 -2.09868955885589 -1.37119119541954
 1  2.59293099329933 -0.56394347594759 -2.13599561936194
 1  4.39532875717572 -1.03778178437844  0.50780315651565
 1  4.04570550685068  1.42043313961396 -2.72531587388739
 1  5.42480577897790  2.09610400060006 -2.16659101370137
 1  5.37926324912491  0.41051138133813 -3.06229752905291
 1  6.50051307460746  1.49862609030903 -0.06431893419342
 1  6.29404275227523  0.02706945804580  0.75945695279528
 1  7.49062280438044 -1.12246331803180 -1.26061018971897
 1  7.81611314231423  0.50706758325833 -1.97007715461546
 1  9.05116121332133  1.12926554305431 -0.10342638013801
 1  8.76089391219122 -0.60391874727473  0.64904952355236
 1  10.15814752625263 -0.04687992169217 -1.88953278387839
 1  9.23597009340934 -2.36926397069707 -1.85902086328633
 1  10.86702978767877 -2.59575608820882 -1.55991217721772
 1  9.68483595719572 -2.67032865546555 -0.40268235893589
 1  11.27004176637664  0.89930433793379  0.32722468586859
 1  11.33073348304830 -0.63531586968697  1.01129860286029
 1  12.96319205490549 -1.60434729612961 -1.00620895579558
 1  12.77990689668967  0.03051253025303 -1.68620698449845
 1  13.86968847204720  0.97104035953595  0.43862052255226
 1  13.88157424772477 -0.62279471677168  1.08960413011301
 1  15.29373176527653  0.34700456085609 -1.48812847234723
 1  15.66081808280828 -2.02370909680968  0.24407681008101
 1  14.92680021182118 -2.07182537613761 -1.48647636803680
 1  16.62699075767577 -1.73822775137514 -1.09746185498550
 1  16.11981719141914  1.40734980768077  0.59177259825983
 1  16.58299000100010  0.03195679998000  1.46199913161316
 1  18.17280647254725 -0.41466843064306 -0.43223923152315
 1  17.60153023422342  1.06029728822882 -1.05073855775578
 1  18.28353703650365  2.31526342594259  0.80308540944094
 1  18.94780105750575  1.02542615391539  1.68865521712171
 1  20.69906997369737  0.62068850465047 -0.15160741034103
 1  19.60121695499550  3.46335532043204 -0.89431970147015
 1  21.28595470937094  2.62753863176318 -1.27882913691369
 1  19.67403823702370  1.95127652995300 -1.82321274457446
 1  21.14267428272827  1.40462976677668  1.95820526212621
 1  22.19138377887789  2.26321485268527  0.91960622682268
 1  20.68355088768877  3.15513919011901  1.67991392259226

