%nproc=4
%Mem=2GB
# td=(NStates=1) CAM-B3LYP/6-31G(d,p) 

TD

0 1
12 -7.10572224152415  0.66479472017202  0.02620066866687
 6 -4.88613749484948 -1.93386549784978  0.42992862776278
 6 -4.88692799909991  2.77679200650065  1.23347680488049
 6 -9.44517910671067  3.06170857025703 -0.36232756575658
 6 -9.59731075867587 -1.77939811481148 -0.79154726972697
 7 -5.16339912151215  0.47992925342534  0.61132865326533
 6 -4.31120872617262 -0.66106672707271  0.72705460826083
 6 -2.92769373057306 -0.32873814591459  1.19569501070107
 6 -3.04230451965197  1.14762589508951  1.59366217261726
 6 -4.41240932763276  1.48663904430443  1.09403566476648
 6 -2.80259805080508  1.31862835013501  3.02616614271427
 6 -1.89964424532453 -0.66497050715071  0.09489881568157
 6 -0.58500675467547 -0.55135336673667  0.60785936883688
 6  0.49807918631863 -0.72144557665767 -0.59658130993099
 8  0.20280082978298 -1.07200860466047 -1.76603588388839
 8  1.80141716671667 -0.55533043984398 -0.23128734883488
 7 -7.18746635513551  2.61062246954695  0.29758491529153
 6 -6.07660479147915  3.33201415531553  0.90920890489049
 6 -6.46621461116112  4.74567519791979  0.89806757125713
 6 -7.71936253165317  4.87217710441044  0.48933584058406
 6 -8.24301485468547  3.46807709900990  0.16086642584258
 6 -5.59442522372237  5.72891398269827  1.49629615481548
 6 -8.68529774217422  6.00093516151615  0.49006902880288
 6 -8.28764796259626  7.31642772707271  0.19677541524152
 7 -9.05896093179318  0.69034551285129 -0.62786449174917
 6 -9.85171683068307  1.74268495109511 -0.64983010721072
 6 -11.15029977287729  1.51953294369437 -1.21838658825883
 6 -11.27462598329833  0.12470634793479 -1.28314758095810
 6 -9.94442432613261 -0.43704219231923 -0.89778908180818
 6 -12.27136537863786  2.42582486338634 -1.40097062796280
 6 -12.34516456215622 -0.79664072627263 -1.78169334653465
 6 -12.35405173717372 -1.07914179937994 -3.25308341374137
 7 -7.27519377147715 -1.34620398199820 -0.22643576227623
 6 -8.23330855315532 -2.23715965546555 -0.51842964886489
 6 -7.90508817631763 -3.56150033293329 -0.45618404740474
 6 -6.49965548754876 -3.52971728722872 -0.08742123422342
 6 -6.24423920212021 -2.13819997449745  0.15686730813081
 6 -8.74789513421342 -4.85224804370437 -0.65394494149415
 6 -5.40118665636564 -4.32389837513751  0.20390889078908
 8 -5.22536389818982 -5.52823547714771  0.22283831863186
 6 -4.07464087408741 -3.31642457655766  0.55080597259726
 6 -3.46154051825183 -3.66636272087209  1.90202138183818
 8 -3.67644129872987 -3.15873910671067  2.97802151745175
 8 -2.73382473037304 -4.81527968046805  1.80081816981698
 6 -2.13711635013501 -5.34645511481148  2.93018435543554
 6  2.80275405200520 -0.52867212491249 -1.23474884978498
 6  4.12528585098510 -0.49676352575258 -0.64526705540554
 6  5.14410801820182  0.31051437593759 -1.00634053425343
 6  4.98269568616862  1.14783932023202 -2.30510760186019
 6  6.44207066466647  0.40843965086509 -0.13184987118712
 6  7.62866060496050 -0.13083496539654 -0.93975364406441
 6  8.91558064046405 -0.09790952445245 -0.14584717891789
 6  10.19938083108311 -0.61955905420542 -0.77682407680768
 6  10.15797298349835 -2.02016135103510 -1.21520318181818
 6  11.50344146124612 -0.20122101270127 -0.05864566586659
 6  12.80787795679568 -0.58326484238424 -0.66920746054605
 6  14.01664735253525 -0.06775353855386  0.16184339733973
 6  15.38889423342334 -0.22547515921592 -0.45576862716272
 6  15.81079518171817 -1.53425621142114 -0.97142442224222
 6  16.47128038203820  0.49794418051805  0.33544272897290
 6  17.86448215251525  0.63203132893289 -0.19321760166017
 6  18.78008340784078  1.26780862766277  0.75243760546055
 6  20.21798947874787  1.31985773037304  0.30109971357136
 6  20.41061129002900  2.18629427742774 -1.03843966536654
 6  21.12879075317532  1.88719308870887  1.38315501710171
 1 -4.06922718121812  3.51974035573557  1.77000152115212
 1 -10.02516626832683  3.87772535643564 -1.02774707730773
 1 -10.37804706650665 -2.40875092979298 -0.81249479697970
 1 -2.66432512321232 -0.65224488818882  2.23410064866487
 1 -2.32077171517152  1.78884737333733  0.85937030353035
 1 -1.67549127242724  1.00848633763376  3.16398661206121
 1 -3.14633942014201  2.30985044164416  3.37085165266527
 1 -3.58684966616662  0.74545891359136  3.54001788628863
 1 -2.26535906280628 -1.64650057045705 -0.21906689268927
 1 -2.04205840804080  0.03920601190119 -0.78102320392039
 1 -0.29369646364636  0.31153907740774  1.06801905380538
 1 -0.27612356605661 -1.49479245464546  1.07459033493349
 1 -5.01204337203720  6.32319749484949  0.61515329752975
 1 -6.25712038233823  6.72940273907391  1.96590127932793
 1 -4.86204943374337  5.51316648804880  2.22712639133913
 1 -9.62503000190019  5.99069200530053  0.82707055155516
 1 -8.92337297769777  8.20811940144014  0.47375796909691
 1 -7.22386742334233  7.42386295549555 -0.24575904650465
 1 -12.08892430523052  3.14843214851485 -2.21688798719872
 1 -13.08924413791379  1.91270690879088 -1.63406693039304
 1 -12.32873983538354  3.08630171557156 -0.47827932593259
 1 -12.52420494859486 -1.81650404860486 -1.37459766766677
 1 -13.28325432903290 -0.51322513551355 -1.38335569256926
 1 -13.05428589478948 -1.78308954815482 -3.59920291799180
 1 -12.47279745374538 -0.16662538843884 -3.88120569556956
 1 -11.44530787838784 -1.37572051605161 -3.60247936343634
 1 -9.33134403030303 -4.65255810411041 -1.66039362076208
 1 -7.94094779577958 -5.53159326752675 -0.77064129222922
 1 -9.26186835263526 -5.00470725772577  0.19716145994599
 1 -3.44876500850085 -3.63800538503850 -0.25992264526453
 1 -1.67282837283728 -4.41502988028803  3.23299998699870
 1 -2.97333252065207 -5.38364900730073  3.76657387948795
 1 -1.51426285278528 -6.15903008010801  2.73542024492449
 1  2.55719039013901 -1.35398508840884 -1.84344842114211
 1  2.55940764096410  0.35867878627863 -1.91653367316732
 1  4.13419264356436 -1.04865287148715  0.27834021022102
 1  4.06018695499550  1.18396949324933 -2.76394973727373
 1  5.53824712311231  2.07535192539254 -2.12599695429543
 1  5.76541186398640  0.60772110231023 -3.03023432273227
 1  6.69851287458746  1.58731495919592  0.08640613831383
 1  6.47141048904890 -0.13612686158616  0.69614062116212
 1  7.45712945504551 -1.20391146284628 -1.32881701040104
 1  7.91182271327133  0.44432130863086 -1.92806295319532
 1  9.21091718891889  0.97087970447045  0.15003896639664
 1  8.82182000480048 -0.59118747414741  0.64795941454145
 1  10.30204191569157  0.10949571587159 -1.81651548214821
 1  9.30545704210421 -2.46540358465847 -1.72800776197620
 1  10.91036412111211 -2.41819833243324 -1.97959414541454
 1  10.11005847944794 -2.54427605020502 -0.28775086578658
 1  11.39573433563356  0.87124153165317  0.06974893829383
 1  11.37176758645865 -0.42432477057706  1.06724419741974
 1  12.82842857855785 -1.68454531593159 -0.71341967686769
 1  12.89420832683268 -0.34131465246525 -1.78150651445145
 1  13.75133663686369  1.11462471797180  0.48713537403740
 1  14.00505659595960 -0.85332777007701  1.03309847954795
 1  15.34344673677368  0.40377023742374 -1.37809746924692
 1  15.74953695469547 -2.41955868176818 -0.12467006460646
 1  15.30953848564856 -2.13505169876988 -1.70728844924492
 1  16.77391545014502 -1.45373930253025 -1.41764387318732
 1  15.91296650635063  1.39501857455746  0.75182860386039
 1  16.57177887988799 -0.13261965766577  1.01340427212721
 1  18.26943613551355 -0.20050701450145 -0.60080608820882
 1  17.98791887308731  1.19739099759976 -1.25995947984799
 1  18.35552423522352  2.23245514511451  1.15598069896990
 1  18.76153243064306  0.70423403470347  1.68990534213421
 1  20.43786385308531  0.49614605040504 -0.03621587118712
 1  20.40192702600260  3.33251223612361 -0.71385165466547
 1  21.45963207710771  1.97147302520252 -1.59508076207621
 1  19.71478231143114  1.93755515781578 -1.90927135043504
 1  21.28655867116712  0.86884618841884  2.09512895449545
 1  22.09530417091709  2.15906443764376  0.99151341754175
 1  20.81133366596660  2.79671334753475  1.70612654385439

