%nproc=4
%Mem=2GB
# td=(NStates=1) CAM-B3LYP/6-31G(d,p) 

TD

0 1
12 -7.18112978227823  0.69405764646465  0.14047209580958
 6 -4.89310819191919 -2.01845395669567  0.41536717161716
 6 -4.89608891519152  2.81086541384138  1.18870232743274
 6 -9.42784737353735  3.08933133253325 -0.38550988398840
 6 -9.46754778237824 -1.70618079307931 -0.93496161116112
 7 -5.15815859745975  0.49938119861986  0.61610913131313
 6 -4.39892749804981 -0.66292691309131  0.74833673647365
 6 -2.92170313151315 -0.47541281338134  1.25826126732673
 6 -3.09081937113711  1.07315844834483  1.71290409680968
 6 -4.41564965166517  1.49238961936194  1.08889515071507
 6 -3.11231902290229  1.38891537883788  3.19307283338334
 6 -1.95845012591259 -0.53845785588559  0.07576690249025
 6 -0.49470772477248 -0.29666789818982  0.46947553045305
 6  0.50109948834883 -0.57532096419642 -0.51863351515152
 8  0.23579412911291 -0.98574997879788 -1.63252253255326
 8  1.80747777277728 -0.32947785458546 -0.14278849894989
 7 -7.11734934343434  2.66985839313931  0.39406456325633
 6 -6.14998212921292  3.38412936683668  0.82166015001500
 6 -6.51847983768377  4.77238786918692  0.96865462996300
 6 -7.77197779317932  4.82350223692369  0.48634554155416
 6 -8.16555710891089  3.51255154645465  0.06371671087109
 6 -5.66335211641164  5.89393048434843  1.42542906810681
 6 -8.67946715911591  5.94402947094710  0.47113713561356
 6 -8.35488468626863  7.18310439473947  0.14673041074107
 7 -9.02811784748475  0.60456693499350 -0.61135284058406
 6 -9.79738139713971  1.74303498609861 -0.73392851705170
 6 -11.25225996889689  1.39543053345335 -1.05547029662966
 6 -11.17171569226923  0.04019789708971 -1.23814308050805
 6 -9.85114499819982 -0.39836832493249 -0.94609391229123
 6 -12.33711195329533  2.34706698759876 -1.40638116901690
 6 -12.34043408910891 -0.79298036023602 -1.83584876207621
 6 -12.21447777977798 -1.10717460266027 -3.35206331173117
 7 -7.15813206530653 -1.44730409200920 -0.24251737043704
 6 -8.12679790209021 -2.30241618111811 -0.62999080498050
 6 -7.76926459395940 -3.72941712461246 -0.41298972797280
 6 -6.41843736573657 -3.56888120362036 -0.09748224032403
 6 -6.17341211941194 -2.16712286678668  0.11610323172317
 6 -8.60091043574357 -4.93732655155516 -0.76036558355836
 6 -5.29933647134713 -4.35582156745675  0.21966046594659
 8 -5.16886824862486 -5.52649530313031  0.26754278907891
 6 -4.08088149814981 -3.26812974707471  0.53095398739874
 6 -3.50414477867787 -3.65881196579658  1.90210138983898
 8 -3.55496915151515 -3.03024625742574  2.99495321062106
 8 -2.72950429832983 -4.65821397389739  1.73228131613161
 6 -2.14249688818882 -5.20052052135214  2.91109244624462
 6  2.84227800440044 -0.63480273797380 -1.13303867876788
 6  4.24188751115112 -0.44912876227623 -0.50721325002500
 6  5.13706731413141  0.40115343984398 -0.93581348154815
 6  5.03831124772477  1.33183772007201 -2.06535362646265
 6  6.43866032363236  0.35082388928893 -0.22007869406941
 6  7.59130686958696 -0.12053393529353 -0.95165483418342
 6  8.93608269066907 -0.19062879637964 -0.12626522072207
 6  10.19055994899490 -0.58382548084808 -0.81427782218222
 6  10.15546273247325 -2.05870520542054 -1.30701236273627
 6  11.46611772887289 -0.35996688728873  0.03430362906291
 6  12.83181035003500 -0.49265578147815 -0.77287782758276
 6  13.95950163796380 -0.09431619481948  0.12417963096310
 6  15.31193653765377 -0.25090770247025 -0.65832888318832
 6  15.54689879207921 -1.76307909370937 -0.99748702850285
 6  16.36955020902090  0.37099148524852  0.30435962066207
 6  17.76470217451745  0.61627975377538 -0.38291657155716
 6  18.70419581908191  1.18865071187119  0.71460382208221
 6  20.12781046084609  1.38709445404540  0.27327693129313
 6  20.35497572647265  2.25845149314932 -0.96130195159516
 6  21.27574544864487  1.63644801420142  1.40786748834883
 1 -4.11013127162716  3.36907528922892  1.77592211321132
 1 -9.98931268296830  3.93908149204921 -0.65104940754075
 1 -10.19554881668167 -2.42005205990599 -1.15944949244925
 1 -2.80377906860686 -1.03664332803280  1.99723696229623
 1 -2.29428906690669  1.83510199879988  1.48737310381038
 1 -2.25843956725673  1.04926041504150  3.87234744814481
 1 -3.30203498969897  2.42705216181618  3.35748031553155
 1 -3.58037901910191  0.80155452315232  3.68459234373437
 1 -2.03167569446945 -1.51241716211621 -0.43253823982398
 1 -2.21858606080608  0.25100719201920 -0.67670277187719
 1 -0.40819791379138  0.62592051555156  1.12806505840584
 1 -0.27183313701370 -1.07314028942894  1.21873474937494
 1 -4.91726389408941  6.32886806190619  0.76383816601660
 1 -6.54702937323732  6.88511831063106  1.62070675987599
 1 -5.16467969676968  5.82330750215022  2.32077575627563
 1 -9.69787728662866  5.77270020612061  0.76449429392939
 1 -9.12269290969097  7.89670826032603 -0.17280668736874
 1 -7.32657769436944  7.59561013021302 -0.11213568416842
 1 -12.22107752055206  2.99069637493749 -2.31193749214922
 1 -13.20852606610661  1.69232487058706 -1.52518604230423
 1 -12.50100706210621  3.05297838323833 -0.49916141414141
 1 -12.27281981008101 -1.78718111631163 -1.23867407530753
 1 -13.32306831043104 -0.43600741374137 -1.65898325532553
 1 -13.09304977117712 -1.62437367656766 -3.53121611931193
 1 -11.98209838383839 -0.32330105600560 -4.03831140614061
 1 -11.19600294789479 -1.85616856085609 -3.31434054955496
 1 -9.00174107000700 -4.62822567086709 -1.84109169056906
 1 -7.89141284228423 -5.59959006720672 -0.77125135323532
 1 -9.51875404120412 -5.21549833683368  0.07062880668067
 1 -3.15928606060606 -3.52028361286129 -0.04691134413441
 1 -1.72971406140614 -4.24051242854285  3.36353304030403
 1 -2.91589677707771 -5.63675431783178  3.63679090119012
 1 -1.46477790429043 -5.76879105620562  2.53808051095110
 1  2.79259393049305 -1.63265295519552 -1.35433951025103
 1  2.62530423062306  0.02880579897990 -1.96777879767977
 1  4.13016224052405 -1.12509051525153  0.41950432663266
 1  4.05286622292229  1.49687078337834 -2.29417275957596
 1  5.37708100650065  2.45069946014601 -1.76831118571857
 1  5.50054537733773  1.10460079027903 -2.91630292959296
 1  6.68048107140714  1.34578080578058  0.20900839853985
 1  6.25300864886489 -0.18192144104410  0.73122412951295
 1  7.29505324742474 -1.19235030673067 -1.13352748144815
 1  7.90053158415842  0.50019689618962 -1.89315946284628
 1  8.98646474367437  0.90398301480148  0.28480244274427
 1  8.85269309210921 -0.75259361476148  0.69456407500750
 1  10.40189190069007 -0.10361559525953 -1.82469630023002
 1  9.17644414081408 -2.30425747004700 -1.82066702790279
 1  10.95153823852385 -2.37860437303730 -1.92317850385039
 1  10.16473394699470 -2.94868649124912 -0.63399549024903
 1  11.48424318651865  0.63808821632163  0.58116007940794
 1  11.50970137983798 -1.14626696479648  0.75238271127113
 1  12.79223495919592 -1.52216907830783 -1.06806514141414
 1  12.91884079007901  0.18254773377338 -1.75700406420642
 1  13.61027253045305  0.82120537603760  0.46387304780478
 1  14.13922001230123 -0.85965840314031  0.81253642334233
 1  15.23106549864987  0.39833969436944 -1.53614327382738
 1  15.60115211621162 -2.31872859875988 -0.00322792039204
 1  14.95936346814682 -2.27462565616562 -1.73857157755776
 1  16.46051411001100 -2.00262419101910 -1.49693180198020
 1  15.90626583628363  1.28421749444945  0.60584400540054
 1  16.48302000400040 -0.01480787648765  1.31947487918792
 1  18.24502369426943 -0.30206717051705 -0.91339734733473
 1  17.53703378457846  1.39503076157616 -1.35346883078308
 1  18.57494617741774  2.16265816541654  1.03010811171117
 1  18.71765804320432  0.58331194249425  1.70218657025703
 1  20.28857892459246  0.32906934273427 -0.05018726832683
 1  20.02827966126613  3.34932391729173 -0.82926319581958
 1  21.48392450635064  2.41427730563056 -1.34352560656066
 1  19.95639647284728  2.00333173547355 -1.93135355865587
 1  21.20104011931193  0.83149245304530  2.24176361796180
 1  22.36935157565757  1.56651518271827  1.00605487168717
 1  21.16127866046605  2.74865854205421  1.84710064126413

