%nproc=4
%Mem=2GB
# td=(NStates=1) CAM-B3LYP/6-31G(d,p) 

TD

0 1
12 -7.14133580288029  0.61444968566857  0.15122317091709
 6 -4.81329021012101 -1.96407851915192  0.57538317321732
 6 -4.88768807510751  2.87251157845785  1.15668912611261
 6 -9.40993558235824  3.12614501390139 -0.36947828082808
 6 -9.44575560316032 -1.72581275627563 -0.85456357135714
 7 -5.12579536113611  0.41743300380038  0.76225374577458
 6 -4.33447105240524 -0.68190881128113  0.75146704950495
 6 -2.88172913411341 -0.33122839493949  1.19580502170217
 6 -3.00950123932393  1.24347548004801  1.61894470087009
 6 -4.39345743244324  1.52689306970697  1.12009827102710
 6 -2.76262405340534  1.38671515881588  3.09382290839084
 6 -1.87525180608061 -0.72912692279228  0.06882620842084
 6 -0.39937819181918 -0.58170640204020  0.59981856475648
 6  0.54488386678668 -0.79036246834683 -0.48806045784578
 8  0.28897944764476 -1.20086148994899 -1.64929420972097
 8  1.86247327232723 -0.40433534033403 -0.11969618971897
 7 -7.23950155865587  2.59801120842084  0.43809896669667
 6 -6.12310944194419  3.37521847574757  0.82921090509051
 6 -6.52484047374737  4.76561719211921  0.89700746524652
 6 -7.85954655005501  4.90519040574057  0.46993390039004
 6 -8.13006355955596  3.44840513181318  0.16063640284028
 6 -5.68236401760176  5.85666675797580  1.55438196339634
 6 -8.66733594599460  6.03588865686569  0.33633365526553
 6 -8.28145734353435  7.33556964126413  0.22832857055706
 7 -9.04722975867587  0.64803128142814 -0.62190389568957
 6 -9.89873153215322  1.77035771837184 -0.64492961716172
 6 -11.18510325322532  1.39131012141214 -1.16249099869987
 6 -11.18301682238224  0.06257013431343 -1.30994026022602
 6 -9.84546443014301 -0.44302279037904 -0.93361266416642
 6 -12.32976121822182  2.39032131303130 -1.39783031393139
 6 -12.18263830953095 -0.82996405860586 -1.87972314951495
 6 -12.10584691669167 -1.13988787398740 -3.29713781918192
 7 -7.24665091719172 -1.32688204980498 -0.23327644634463
 6 -8.21507672997300 -2.30329626912691 -0.53717152305231
 6 -7.79513718121812 -3.63265744864486 -0.56851528052805
 6 -6.48707422942294 -3.46061037653765 -0.17337983008301
 6 -6.24372915111511 -2.22565872037204  0.19420104150415
 6 -8.50319066376638 -4.86506932583258 -0.99135868286829
 6 -5.29793633133313 -4.34412039733973  0.18421692159216
 8 -5.15879724152415 -5.56741939553955  0.11826786158616
 6 -4.16662007200720 -3.27882081618162  0.62160305230523
 6 -3.50336470067007 -3.64044012861286  1.85442662236224
 8 -3.68475212981298 -3.08345157795780  2.95871958725873
 8 -2.78260960886089 -4.73073122562256  1.72588067606761
 6 -2.08094073257326 -5.00491096039604  3.01600293729373
 6  2.88554233083308 -0.64794405210521 -1.09955533043304
 6  4.10719404180418 -0.39309315871587 -0.42845537423742
 6  5.11581518891889  0.32995632013201 -0.91847174737474
 6  5.03587100370037  1.14375891219122 -2.22761985308531
 6  6.43133959155916  0.46525533243324 -0.22396908310831
 6  7.56357409630963  0.01538965706571 -0.97349701840184
 6  8.90179926232623  0.02721298779878 -0.15382797699770
 6  10.11414230723072 -0.57118421672167 -0.86545293969397
 6  10.07842502870287 -2.04680401530153 -1.09921158265827
 6  11.41960307740774 -0.20684157475748  0.01937213591359
 6  12.70460762976298 -0.58425494139414 -0.63400394019402
 6  13.95194088188819 -0.29410617381738  0.22770998399840
 6  15.21384672867287 -0.29535214691469 -0.65612866316632
 6  15.58712281448145 -1.61266405220522 -1.27226450625063
 6  16.35431868586858  0.30878526462646  0.30540972567257
 6  17.78276398069807  0.45610373617362 -0.25535381528153
 6  18.72067746724673  1.20630247704770  0.66709907160716
 6  20.17880556035604  1.41041678627863  0.24447405100510
 6  20.30951118001800  2.28054370237024 -1.12104792619262
 6  21.01428930303030  1.84986935633563  1.38174487608761
 1 -4.15272553105310  3.67825620732073  1.52409693069307
 1 -9.91564531623162  4.05295287918792 -0.62465676827683
 1 -10.20641990379038 -2.35871592629263 -1.19240278777878
 1 -2.58779747044705 -0.92459212291229  1.94366160476048
 1 -2.30791042904290  1.85290377897790  1.01204557105711
 1 -1.78955267856786  0.83389887888789  3.33294350775078
 1 -2.75809059525953  2.55304476107611  3.32133670117012
 1 -3.67822880408041  1.06014038173817  3.71957584208421
 1 -1.96480900780078 -1.67759367976798 -0.38434342034203
 1 -1.97936213841384  0.10374246554655 -0.71342644424442
 1 -0.33577067106711  0.49045696919692  1.12294454635464
 1 -0.25205115881588 -1.18071104650465  1.43193606950695
 1 -4.95020718841884  6.39022419751975  0.81051283348335
 1 -6.31100577087709  6.90971076987699  2.05566025522552
 1 -5.14900812961296  5.39164433583358  2.23585726442644
 1 -9.77564506340634  5.73162609870987  0.20457830233023
 1 -8.99324996539654  7.92318090759076  0.15672626592659
 1 -7.22393743034303  7.67042761196120  0.35959148854885
 1 -11.80641605440544  3.48334563986399 -1.87118341674167
 1 -13.11703691719172  1.71102674077408 -2.03594711841184
 1 -12.74750171157116  2.63531661706171 -0.34120561856186
 1 -12.07465999409941 -1.77378977717772 -1.22366257415742
 1 -13.38177418101810 -0.69848366136614 -1.61949930693069
 1 -13.20683114931493 -1.63174441364136 -3.55188818651865
 1 -12.07381755575558 -0.11296002190219 -3.88443601860186
 1 -11.32469581718172 -1.73606655065507 -3.64209332483248
 1 -8.77136803270327 -4.49988283658366 -1.83468104950495
 1 -7.79310301130113 -5.86475658385839 -0.86918114621462
 1 -9.40773293909391 -5.08232501950195 -0.25299355555556
 1 -3.46894702670267 -3.33852543704370 -0.17876452945295
 1 -1.43977506750675 -4.10293867116712  3.47189387638764
 1 -2.75588077547755 -5.30406104850485  3.70751797389739
 1 -1.43301472797280 -5.86189036613661  2.64795149804980
 1  2.82616728782878 -1.69327901780178 -1.43332740904090
 1  2.86014771497150 -0.05108218981898 -1.87280930073007
 1  4.11074029832983 -0.78811681788179  0.62243461966197
 1  4.01861279757976  1.10580167646765 -2.77051039333933
 1  5.36656995539554  2.10181457165717 -2.20688504310431
 1  5.73069839263926  0.76554688488849 -2.93550484978498
 1  6.74751777507751  1.50478670637064 -0.08970147244725
 1  6.44189753775377 -0.18022127102710  0.87919892699270
 1  7.45380912301230 -1.19741081278128 -1.10853498219822
 1  7.81196272727273  0.59406628312831 -1.82442258915892
 1  9.05452154935493  0.99585220172017  0.33889785228523
 1  8.92972079487949 -0.82311066646665  0.72140675927593
 1  10.10726243774377  0.09006377267727 -1.82062589318932
 1  9.20125662206221 -2.37659470377038 -1.64724968616862
 1  11.02054513921392 -2.36806331893189 -1.84841102710271
 1  10.08178565216522 -2.50931255385539 -0.10314240494049
 1  11.40651541374137  0.80513492099210  0.43799576297630
 1  11.24997540724072 -0.71517385548555  0.99617709070907
 1  12.66921265696570 -1.43515037643764 -0.84619295419542
 1  12.85982488848885  0.18677815681568 -1.41624998879888
 1  13.57069857305731  0.58135139063906  0.85653231373137
 1  13.94423051335133 -1.10446288358836  1.12231740144014
 1  14.98561095319532  0.57497735813581 -1.44741440094009
 1  15.69793179417942 -2.23705043094309 -0.46722432003200
 1  14.83633116491649 -2.22519071267127 -1.96947466786679
 1  16.51601966056606 -1.60097402600260 -1.77947005580558
 1  15.89888509820982  1.23435250795080  0.74591801280128
 1  16.28530023202320 -0.48042443814381  1.20382331403140
 1  18.30016920882088 -0.52886985078508 -0.30209621722172
 1  17.67553763496350  0.88463972247225 -1.06084956885689
 1  18.48444712751275  2.17878977857786  0.97401250215022
 1  18.86214249164916  0.73695730703070  1.64996134773477
 1  20.41629169586959  0.47514395019502 -0.19590183978398
 1  19.94024085738574  3.34625361026103 -0.83118338783878
 1  21.34450056395640  2.26504238213821 -1.39820107410741
 1  19.54321515471547  1.79493089538954 -1.79103952725272
 1  20.85057507280728  1.10587989178918  2.12032147374738
 1  22.07199183968397  1.90086861806181  1.32639690589059
 1  20.78904143674367  2.88212188838884  1.75733166436644

