%nproc=4
%Mem=2GB
# td=(NStates=1) CAM-B3LYP/6-31G(d,p) 

TD

0 1
12 -7.13147481678168  0.55834407510751  0.09637768636864
 6 -4.84164304540454 -1.93724583588359  0.50521615651565
 6 -4.85881518781878  2.86454078137814  1.18596205340534
 6 -9.45668025682568  3.06603900330033 -0.39453078607861
 6 -9.50804183178318 -1.75556573157316 -0.86159427442744
 7 -5.14174695629563  0.42436369686969  0.66765428582858
 6 -4.31446905220522 -0.66317693809381  0.77898980178018
 6 -2.92527348854885 -0.45191046314631  1.28784422562256
 6 -3.04660494969497  1.08750988348835  1.64703751015102
 6 -4.39118720542054  1.51669204960496  1.07459372057206
 6 -3.13940173117312  1.31783827112711  3.16053958005801
 6 -1.94612889378938 -0.64139814991499  0.10400972677268
 6 -0.42710096409641 -0.26464469586959  0.55727431033103
 6  0.55926530493049 -0.64027745984598 -0.50706235803580
 8  0.26650720042004 -1.02602400620062 -1.68156743704370
 8  1.80416744174417 -0.42082698949895 -0.11829604970497
 7 -7.07316492499250  2.62829423672367  0.42355751255126
 6 -6.11069820082008  3.42198315221522  0.85257324132413
 6 -6.50121811151115  4.81056168656866  0.96907467196720
 6 -7.77733832923292  4.73502338903890  0.43512041904190
 6 -8.19592014521452  3.42798308960896  0.13018335753575
 6 -5.57258303950395  5.90887197849785  1.40481700690069
 6 -8.60073928632863  5.88424349234923  0.34274429632963
 6 -8.22463166096610  7.15256134043404 -0.09579384168417
 7 -9.11565660136014  0.68245472377238 -0.59345105040504
 6 -9.92426408540854  1.86670735333533 -0.65059018321832
 6 -11.25755049794980  1.38770976137614 -1.02028677827783
 6 -11.29239776047605 -0.01093721642164 -1.11365063126313
 6 -9.91794167786779 -0.36725521362136 -0.89603890679068
 6 -12.31762000410041  2.51482376327633 -1.26687721862186
 6 -12.45004505020502 -0.77204826702670 -1.73700887808781
 6 -12.28295462746275 -1.22323620882088 -3.22794089948995
 7 -7.18336458855886 -1.40629999159916 -0.27404052275228
 6 -8.29346456875688 -2.17395333483348 -0.62179998589859
 6 -7.80316798429843 -3.67866204910491 -0.65493392239224
 6 -6.47702322432243 -3.61979629512951 -0.13855634773477
 6 -6.15971074927493 -2.29015517001700  0.02820444184418
 6 -8.67042738743874 -4.87468028692869 -0.82196174317432
 6 -5.32525906360636 -4.40301628692869  0.05543404330433
 8 -4.99878123992399 -5.61912456605661 -0.00251421662166
 6 -4.27577098709871 -3.36997993209321  0.50293118511851
 6 -3.58368273247325 -3.70813689828983  1.82013319301930
 8 -3.78534218881888 -3.16843007580758  2.90358407370737
 8 -2.69892124002400 -4.69451760426043  1.71435952395240
 6 -2.09048168666867 -5.15018548784878  2.88978031503150
 6  2.86729050565057 -0.50814007170717 -1.07840321522152
 6  4.18985230763076 -0.25668951835184 -0.49016154485449
 6  5.17624123152315  0.54268759325933 -0.88078797899790
 6  5.09223664026403  1.50687522382238 -2.05038212931293
 6  6.46171262886289  0.57858666556656 -0.05264195039504
 6  7.57920565946595 -0.13528541044104 -0.88632830153015
 6  8.89718880128013  0.03363362986299 -0.03556615081508
 6  10.22368326132613 -0.52700979927993 -0.79516591099110
 6  9.96392357855786 -1.95962529742974 -1.36955861736174
 6  11.45502661976198 -0.30999188978898  0.08881908060806
 6  12.80537770677068 -0.49972648854885 -0.59001954175418
 6  13.94363005080508 -0.04181094429443  0.30848806180618
 6  15.37458280228023 -0.35624823652365 -0.39750280058006
 6  15.70760486268627 -1.77755054085409 -0.61608888868887
 6  16.53796705070507  0.15094948104810  0.55556474117412
 6  17.84416012031203  0.28757688348835 -0.22722100200020
 6  18.88100349984999  1.26580842764276  0.66485884758476
 6  20.22100978077808  1.30640638523852  0.00503010661066
 6  20.16530675957596  2.06008165616562 -1.34922074347435
 6  21.30765863996400  2.01652602200220  0.95924262586259
 1 -4.14654491299130  3.77305568726873  1.55149967096710
 1 -10.02986673837384  3.91054863876388 -0.35368967156716
 1 -10.27158642044204 -2.35117517221722 -1.22757630513051
 1 -2.71187987868787 -1.21112077577758  2.06142338093809
 1 -2.13099273727373  1.71966045464546  1.31873624012401
 1 -2.18708243154315  0.94838032703270  3.51735194859486
 1 -3.12822760896090  2.55022447904790  3.34929949744975
 1 -3.82654363556356  0.73944831253125  3.66171005550555
 1 -1.84790731763176 -1.80768668906891 -0.12189717571757
 1 -2.21418562076208  0.02510460176018 -0.70694579617962
 1 -0.54577167116712  0.67811573507351  0.84607685958596
 1 -0.05004095779578 -0.79069204460446  1.71331420732073
 1 -4.85728789648965  6.26408158325833  0.65864764696470
 1 -6.17896256655666  6.56994679347935  1.96258094729473
 1 -4.76390961976198  5.48523369476948  2.04573825252525
 1 -9.70112761166117  5.79273220932093  0.39048689318932
 1 -8.96068670907091  7.98652724222422 -0.45884529122912
 1 -7.34583962056206  7.44639520872087 -0.17158162876288
 1 -12.20953636643664  3.28517582288229 -1.88365466386639
 1 -13.36123133663366  1.98092373047305 -1.62662618631863
 1 -12.66863382478248  3.05735882128213 -0.48063956195620
 1 -12.83560608870887 -1.47702010021002 -0.99180938883888
 1 -13.23030903450345 -0.12605641864186 -1.72116947394740
 1 -13.17615808200820 -1.63525476467647 -3.42445544324432
 1 -12.05205537953795 -0.29973869976998 -3.90283785878588
 1 -11.37860120772077 -1.72398534253425 -3.50844996049605
 1 -9.50071096699670 -4.87393024132413 -1.67649523092309
 1 -7.90558425942594 -5.78022813101310 -1.21453568166817
 1 -9.13738590439044 -5.20820760776078  0.15737748154815
 1 -3.46553668566857 -3.57614919941994 -0.21618827182718
 1 -1.30274136413641 -4.60972935023502  3.42211889888989
 1 -2.78753394079408 -5.43347398979898  3.68175539763976
 1 -1.34787621412141 -6.00299447654765  2.27290399329933
 1  2.69350402150215 -1.49779946984698 -1.52757683398340
 1  2.72162386258626  0.13634655305531 -1.98319033883388
 1  4.20042926722672 -0.95452345854585  0.37008938513851
 1  4.13546448274827  1.54844594089409 -2.43458680098010
 1  5.46011931033103  2.51594598479848 -1.55870022462246
 1  5.66835215801580  1.22845317551755 -2.85318661796180
 1  6.85202822612261  1.52373860156016  0.27835533323332
 1  6.27440078807881  0.19398614971497  0.82623363046305
 1  7.39986372847285 -1.17433850555055 -0.91876600530053
 1  7.77349888088809  0.33150002650265 -1.87861800870087
 1  9.07986408360836  0.94411702820282  0.38995295779578
 1  8.83606142894289 -0.59491784718472  0.74360897949795
 1  10.18550026152615  0.21905667196720 -1.62751658225823
 1  9.20578707510751 -1.99188623292329 -2.07244220542054
 1  10.76356944164416 -2.13931044364436 -2.06748293429343
 1  9.96618409200920 -2.65871749434944 -0.53419551025102
 1  11.38178294049405  0.52359676717672  0.69325128852885
 1  11.42527293699370 -1.03626596469647  0.94923239623962
 1  12.72938867456746 -1.55121198259826 -0.76518485338534
 1  12.97184609060906  0.00636011501150 -1.58965732953295
 1  13.85018652185219  1.05433868936894  0.44834149464947
 1  13.75690178047805 -0.66958939623962  1.14499966966697
 1  15.58228062016202  0.19744960536054 -1.36092575207521
 1  15.63151515251525 -2.50810753665367  0.29108151055105
 1  14.96504403620362 -2.26305449904990 -1.27054477487749
 1  16.61062912151215 -2.02393632223222 -1.13985609440944
 1  16.22531774147415  1.18646771947195  0.85499892089209
 1  16.77595929792979 -0.48800519621962  1.62610554225423
 1  18.38725791769177 -0.55983294709471 -0.46934294189419
 1  17.67505758695870  0.81796305480548 -1.13098658255826
 1  18.44647333013301  2.23780568016802  0.77355245614561
 1  18.90304658205821  0.95687929922992  1.77072342394239
 1  20.55657572427242  0.39963639943994 -0.32491474107411
 1  19.50683751705171  3.05529451435143 -1.31569183868387
 1  21.16313242714271  2.13815969386939 -1.83990524452445
 1  19.79035986918691  1.29475087738774 -1.98213863716372
 1  21.29271928722872  1.49974927872787  1.84874431603160
 1  22.27714235473547  2.12857138833883  0.37286155235524
 1  20.96775930853086  3.11269494569457  1.15942187338734

