%nproc=4
%Mem=2GB
# td=(NStates=1) CAM-B3LYP/6-31G(d,p) 

TD

0 1
12 -7.18046971627163  0.65298353905391  0.15504355295530
 6 -4.80314919601960 -1.95983809510951  0.43713934883488
 6 -4.83321262756276  2.83457778507851  1.11401485868587
 6 -9.47022161096110  3.11368376777678 -0.31569290229023
 6 -9.58496952455246 -1.74088426342634 -0.85340345534553
 7 -5.07727050865086  0.46019728022802  0.61838935933593
 6 -4.33093069836984 -0.68216883728373  0.79562146494649
 6 -2.92776373757376 -0.47744301640164  1.26417185838584
 6 -2.98007829702970  1.01367249974997  1.71593439983998
 6 -4.38489657635764  1.53772415281528  1.07503376457646
 6 -3.01246903790379  1.26301278857886  3.25873940004000
 6 -1.91719600050005 -0.63948795889589  0.19553887968797
 6 -0.46374462846285 -0.42281051245125  0.57888647154715
 6  0.53431280968097 -0.81366479857986 -0.55763741554155
 8  0.21846239593959 -1.14705610941094 -1.62273155345535
 8  1.74427145214521 -0.50419532633263 -0.13326754685469
 7 -7.16645425392539  2.54474588188819  0.45535069186919
 6 -6.07811494249425  3.31215216911691  0.80982896689669
 6 -6.39728771847185  4.71990262066207  0.78110587508751
 6 -7.72268286368637  4.78481836853685  0.29952685968597
 6 -8.19884043724372  3.41436172747275  0.17598793799380
 6 -5.48509429062906  5.85217630893089  1.33548007320732
 6 -8.47122633503350  6.08484355235524  0.19704972687269
 6 -8.15737493529353  7.34340042434243  0.10334607230723
 7 -9.18016305200520  0.71937841614161 -0.42425413071307
 6 -9.94213587258726  1.83474415701570 -0.65473059725973
 6 -11.30100484338434  1.47261825222522 -1.04672942254225
 6 -11.28400692139214  0.07386126342634 -1.16323558975898
 6 -9.97980786448645 -0.42317080518052 -0.80052935583558
 6 -12.18952719481948  2.50595287618762 -1.38660919181918
 6 -12.41518156385639 -0.75702676487649 -1.64445962316232
 6 -12.29060539253925 -1.07149103430343 -3.10887899329933
 7 -7.18503475557556 -1.33452281388139 -0.13436655535554
 6 -8.35672089438944 -2.10325626512651 -0.56112391829183
 6 -7.87674534203420 -3.59253343624362 -0.48519694869487
 6 -6.52363788578858 -3.54003831933193 -0.16318881098110
 6 -6.23486826502650 -2.17695384988499  0.10532215361536
 6 -8.70473081778178 -4.79382220112011 -0.88232777977798
 6 -5.34132066976698 -4.31336732203220  0.11840033993399
 8 -5.10967232903290 -5.47837049064906  0.19267530233023
 6 -4.23376678667867 -3.33880681478148  0.45608650065006
 6 -3.53574793899390 -3.66584266886689  1.70830200990099
 8 -3.84501815641564 -3.15992922572257  2.79464317961796
 8 -2.63502485038504 -4.65936408890889  1.56507459545955
 6 -1.96725936443644 -5.20564103340334  2.73137447444744
 6  2.78966274287429 -0.73952321002100 -1.07165254015402
 6  4.09996331873187 -0.55977982738274 -0.44883741244124
 6  5.13467707510751  0.15211853635364 -0.89841974217422
 6  5.17588500510051  0.92749728602860 -2.28866595769577
 6  6.41596805440544  0.35617442434243 -0.17853453965397
 6  7.68760649954995 -0.36361824372437 -0.81499116781678
 6  9.04978406080608 -0.24616434993499 -0.08543113731373
 6  10.18499939293929 -0.53955105340534 -0.91724811921192
 6  10.24914210041004 -2.00497983288329 -1.42569423092309
 6  11.41872298939894 -0.33808469906991  0.01385158385839
 6  12.82051922092209 -0.45479199509951 -0.70140067986799
 6  14.02074776257626 -0.09441620482048  0.15662287528753
 6  15.37406275027503 -0.05716832853285 -0.53244629492949
 6  15.70654475667567 -1.46922970877088 -0.85149242904290
 6  16.36920017401740  0.59743412951295  0.36211539623962
 6  17.75260096439644  0.68154628042804 -0.19151743164316
 6  18.70447584708471  1.34110595739574  0.68334069576958
 6  20.14924260406040  1.42178792339234  0.20310991459146
 6  20.38735896479648  2.20081572957296 -1.06340216161616
 6  21.02062993709371  1.94248861826183  1.42255895749575
 1 -4.06540679917992  3.68206658835884  1.51126564756476
 1 -10.12324607630763  4.08528611251125 -0.36346064866487
 1 -10.39566882868287 -2.22843289798980 -1.16463001050105
 1 -2.77394608530853 -1.15501516521652  2.27211445004500
 1 -2.46830646864686  1.83141162976298  1.31272563906391
 1 -1.95016874017402  0.90754624362436  3.59306952035204
 1 -3.15974076027603  2.27683714031403  3.69807437493749
 1 -3.72734371557156  0.40474484218422  3.79787367186719
 1 -2.08846137303730 -1.72241816221622 -0.06650163616362
 1 -2.31287548974897  0.02236432773277 -0.62382748434843
 1 -0.21666876087609  0.51925984948495  0.92424467636764
 1 -0.32228818251825 -1.32635561096110  1.37300017591759
 1 -4.80512267996800  5.94679985508551  0.41853363556356
 1 -6.03520819111911  6.74904470327033  1.62093678287829
 1 -4.91857508630863  5.54506967836784  2.01253493219322
 1 -9.65343284218422  5.99859279537954 -0.17913006850685
 1 -8.95015565596560  8.15343393289329 -0.24495390209021
 1 -7.09061409800980  7.83137370657066  0.00131566096610
 1 -11.72865827862786  3.13919122442244 -2.19900619901990
 1 -13.21805701920192  2.13788942704270 -1.69235275897590
 1 -12.54360132153215  3.31224430983098 -0.50220171817182
 1 -12.78865139323932 -1.57061946014601 -1.19604981288129
 1 -13.23443944754476  0.15653184018402 -1.45407276427643
 1 -13.03732419861986 -1.87792903210321 -3.29722271997200
 1 -12.52784295829583 -0.20130885678568 -3.65004257925793
 1 -11.21450479807981 -1.43153609760976 -3.30627974347435
 1 -9.44519541544155 -4.66692954125413 -1.78060564196420
 1 -8.09259296029603 -5.65383549174917 -1.21543577167717
 1 -9.26780894669467 -5.00734752175218  0.20353209700970
 1 -3.39472960496050 -3.34259584408441 -0.28006465946595
 1 -1.43180427042704 -4.46216459375938  3.25585227222722
 1 -2.79558474587459 -5.68801944434443  3.44738196029603
 1 -1.37973940044004 -5.98409258635864  2.42872957585759
 1  2.72460713181318 -1.74599428932893 -1.32569664596460
 1  2.54606630683068 -0.15422250385039 -1.81934395419542
 1  4.21697092139214 -1.12390039623962  0.30156253245325
 1  4.07810874717472  0.88280937723772 -2.50688403070307
 1  5.46399969836984  1.94096848704870 -2.23560791539154
 1  5.85965128792879  0.53060339053905 -2.94994629392939
 1  6.90363338663866  1.38449467716772 -0.00210271257126
 1  6.42846619461946 -0.25761901080108  0.78919992709271
 1  7.48363210531053 -1.35818689038904 -1.25394952365237
 1  7.67503903490349  0.09139601610161 -1.87264741164116
 1  9.08347444464446  0.77675029152915  0.29152311481148
 1  8.94104192699270 -0.88068642404240  0.98750336893689
 1  10.39993170467047  0.02942770907091 -1.77986181678168
 1  9.37139363576358 -2.11625867016702 -2.00525548674867
 1  11.21014409910991 -2.22028854145415 -1.92511869786979
 1  9.95852332593259 -2.79492111471147 -0.48475056575658
 1  11.71444620682068  0.57800220772077  0.40444240764076
 1  11.22171258095810 -0.97719005710571  0.85950342334233
 1  13.10856659235924 -1.49654651605160 -1.00898923382338
 1  12.80862976897690  0.06705618461846 -1.61434979877988
 1  13.80055155835583  0.82604586008601  0.83008966946695
 1  14.00147623792379 -0.68993143044304  1.07469263896390
 1  15.34163655575558  0.47472733313331 -1.44919457895790
 1  15.77347934893489 -2.04920164606461 -0.06419401700170
 1  15.04076160796080 -1.84064225782578 -1.76280400080008
 1  16.69293735233524 -1.59720364896490 -1.31391350015001
 1  16.18256346604660  1.48087716041604  0.66425984698470
 1  16.39744144614462  0.03526713101310  1.31600453215322
 1  18.15180437233724 -0.37392435623562 -0.44193020062006
 1  17.79171925312531  1.28060931943194 -1.13615709960996
 1  18.26055473827383  2.39865176477648  0.86803190409041
 1  18.64475075247525  0.76141975327533  1.61073742534253
 1  20.37446751345134  0.54192062786279 -0.04537678727873
 1  20.01647848114812  3.24686367126713 -1.06258652815282
 1  21.55650176407641  2.09167504540454 -1.55561681568157
 1  19.68341917511751  1.83454485678568 -1.93754417771777
 1  20.86589660496050  1.03579288308831  2.25390483208321
 1  22.07851249174918  1.91509004020402  1.08573283948395
 1  20.75335786838684  2.88559223542354  1.71766769796980

