%nproc=4
%Mem=2GB
# td=(NStates=1) CAM-B3LYP/6-31G(d,p) 

TD

0 1
12 -7.15165683498350  0.63075131583158 -0.04348630003000
 6 -4.88364724582458 -2.01060317161716  0.55741137603760
 6 -4.89074838113811  2.83283761106111  1.20928438563856
 6 -9.42544713351335  3.03518591799180 -0.28879021202120
 6 -9.61092211981198 -1.75599577457746 -0.90939905490549
 7 -5.17616039763976  0.52442370287029  0.66828434883488
 6 -4.34617222252225 -0.71420204060406  0.74332623542354
 6 -2.97665862706271 -0.39469474157416  1.17874331553155
 6 -3.03924421362136  1.07109824232423  1.64258706510651
 6 -4.45047313401340  1.47383776417642  1.11652791399140
 6 -3.06941473247325  1.19169565686569  3.27567109320932
 6 -1.86461074197420 -0.39398340844084  0.00278960476048
 6 -0.47990624462446 -0.21724995639564  0.44337292019202
 6  0.55724510291029 -0.61787521962196 -0.56105775757576
 8  0.34620517021702 -1.16334773857386 -1.66385566586659
 8  1.77867489248925 -0.30524543134313 -0.15978019811981
 7 -7.08527613611361  2.52920432773277  0.34227938473847
 6 -6.10718784978498  3.34335528942894  0.86129411341134
 6 -6.49543753345335  4.77721835223522  0.82965072957296
 6 -7.86995759115912  4.82045193189319  0.38058496549655
 6 -8.19794034723472  3.36743703500350  0.12995333453345
 6 -5.58171395259526  5.90362145344534  1.40474699989999
 6 -8.66872608500850  6.00623569156916  0.27652767466747
 6 -8.22534173197320  7.19476556085609  0.06184192189219
 7 -9.23197823352335  0.60991747004700 -0.38830053535354
 6 -9.96906856585658  1.74448513111311 -0.56579170337034
 6 -11.32198694159416  1.41936292669267 -0.91282603220322
 6 -11.33475199589959  0.03387726502650 -1.16745601180118
 6 -10.01654153785378 -0.46655514361436 -0.86029533243324
 6 -12.28932717481748  2.29783206410641 -1.18452898379838
 6 -12.40319036473647 -0.81472253445345 -1.66657183438344
 6 -12.38618495049505 -0.99549343454345 -3.20080818621862
 7 -7.28451470357036 -1.39363872547255 -0.17896101480148
 6 -8.30947616991699 -2.20441638113811 -0.60244805070507
 6 -7.74625229272927 -3.52510669356936 -0.63967239623962
 6 -6.43033855585559 -3.55606992249225 -0.07924041614161
 6 -6.22522730093009 -2.20310646514651  0.10749237063706
 6 -8.58465881058106 -4.91463428232823 -0.94516406340634
 6 -5.25160169786979 -4.36270225552555  0.20800930083008
 8 -5.15732709450945 -5.59220187378738  0.08378441324132
 6 -4.15412882288229 -3.33075600970097  0.54084497649765
 6 -3.53984834903490 -3.67677376197620  1.91298247794779
 8 -3.72146580118012 -3.07649088188819  2.91646536183618
 8 -2.67891923982398 -4.67771592409241  1.69475756375638
 6 -2.21090372887289 -5.19109957925793  2.94052538953895
 6  2.84526830343034 -0.60553981168117 -1.21021639653965
 6  4.19145246764676 -0.36049989938994 -0.56915944464446
 6  5.20894450185019  0.39333265776578 -1.00935083528353
 6  5.06382379897990  1.25719025532553 -2.28496558765877
 6  6.50685714331433  0.53592239913991 -0.25648233443344
 6  7.68629636853685 -0.08831071297130 -0.99517918661866
 6  8.85183426582658 -0.04105383888389 -0.16217881208121
 6  10.21031192419242 -0.58863596189619 -0.87633402780278
 6  10.21376856305631 -2.11573090799080 -1.10268192969297
 6  11.33970508760876 -0.19254014461446 -0.09541934323432
 6  12.84565173417342 -0.49094561046105 -0.72848338813881
 6  14.02854854265427 -0.20499726292629  0.25215242824282
 6  15.34960030403040 -0.23178579027903 -0.47643069336934
 6  15.79104320652065 -1.63776656245625 -0.85137241704170
 6  16.44538779277928  0.47762214831483  0.44520370507051
 6  17.87376308060806  0.58739686548655 -0.18723700360036
 6  18.82416781628163  1.24493634043404  0.81504386608661
 6  20.30072775257526  1.22580832543254  0.29198880248025
 6  20.42307253615362  1.93040868886889 -1.09697551895190
 6  21.37682555665567  1.81573594299430  1.20983768536854
 1 -4.10707096559656  3.66630501220122  1.42578709970997
 1 -9.96998074977498  3.92437002090209 -0.41444574717472
 1 -10.36064532633263 -2.51599165386539 -1.21577512501250
 1 -2.47533622432243 -0.93531319501950  2.10705794439444
 1 -2.27335697369737  1.67229571817182  1.12755712221222
 1 -1.91278500180018  1.11283677267727  3.71790200360036
 1 -3.42227701390139  2.33350280688069  3.59763433093309
 1 -3.56607758895890  0.38041240894089  3.64565845034503
 1 -2.00544307120712 -1.38183410381038 -0.55672065806581
 1 -2.16136033823382  0.23115520682068 -0.66831193279328
 1 -0.41237833183318  0.89046697019702  0.73328558045805
 1 -0.12624857855786 -0.96263923932393  1.42752562846285
 1 -4.85248741644164  6.17636281138114  0.48784056625663
 1 -6.13958862916292  6.82449224802480  1.71143583278328
 1 -4.93960718951895  5.38844401580158  2.37708138683868
 1 -9.80594809370937  5.84510744684468  0.60955880038004
 1 -9.18273891429143  7.90202879237924  0.03251384468447
 1 -7.39666470307031  7.50377094629463 -0.34175864646465
 1 -12.10227564036404  2.91443874917492 -2.00351665006501
 1 -13.32228744224422  1.99361499959996 -1.16727025072507
 1 -12.34577153855386  3.09786287168717 -0.47665916391639
 1 -12.33721624972497 -1.74783718191819 -1.16458666656666
 1 -13.32921892549255 -0.22804661766177 -1.48805616261626
 1 -13.29634010021002 -1.66735797499750 -3.45855885358536
 1 -12.31203137713771 -0.10676940284028 -3.73715129012901
 1 -11.45461880948095 -1.60441338533853 -3.43919303480348
 1 -9.09643053895390 -4.78129097739774 -1.96155373677368
 1 -7.83248694969497 -5.84751485968597 -0.82610683878388
 1 -9.49410157595760 -4.93321010801080 -0.38416667286729
 1 -3.36522665466547 -3.44477606210621 -0.26261291429143
 1 -1.70446153615362 -4.56907528482848  3.65379206620662
 1 -2.98851403880388 -5.72910355275527  3.63759098119812
 1 -1.61506293279328 -6.00660483758376  2.75848255115512
 1  2.68161283238324 -1.68023771367137 -1.69161323762376
 1  2.73809550975098  0.09310222862286 -1.97357937773777
 1  4.29844906920692 -0.90010801700170  0.28166054225422
 1  4.09094003030303  1.20729182548255 -2.80308365066507
 1  5.48001129952995  2.22556694689469 -2.01055541014101
 1  5.97004232703270  0.91271160136014 -2.78954025332533
 1  6.67488051135113  1.53866009370937 -0.02632513481348
 1  6.22053540154015 -0.00319356825683  0.63846485358536
 1  7.43002674477448 -0.96779785148515 -1.36170029872987
 1  7.78882041304130  0.60292716921692 -1.95483563046305
 1  9.20483658085809  0.96325894239424  0.10156411891189
 1  8.83498132093209 -0.46542489788979  0.76299091769177
 1  10.33587529902990 -0.14682991669167 -1.71976580718072
 1  9.20186668306831 -2.45434247854785 -1.65314027522752
 1  11.15346843154315 -2.44466097869787 -1.66290247624763
 1  10.10977845144514 -2.64053567616762 -0.19197128782878
 1  11.39627438963896  0.78075248274828  0.35717768116812
 1  11.36563697339734 -1.02438477657766  0.76887436043604
 1  12.85713144884488 -1.34260112151215 -1.17054538943894
 1  12.81542044804480  0.20321980098010 -1.59943830763076
 1  13.84864636783678  0.86602985848585  0.70364702520252
 1  13.98520461076108 -0.79040147744775  1.07443261296130
 1  15.20662305440544  0.44839469986999 -1.34639429892989
 1  15.77443944494450 -2.07938466436644  0.08760116251625
 1  15.09369690149015 -1.99373756735674 -1.61460918131813
 1  16.87185524412441 -1.75506943554355 -1.32085419421942
 1  16.08882409210921  1.46440551325133  0.71163458445845
 1  16.50412211421142 -0.07568396409641  1.47012994469447
 1  18.14056324822482 -0.42380934473447 -0.48539454705471
 1  17.61888196939694  1.13612487098710 -0.99056254015402
 1  18.54773345614561  2.29618151775178  0.88143324422442
 1  18.82443872127213  0.87331094239424  1.95102145374537
 1  20.71181124782478  0.15997243304330  0.14599234963496
 1  20.06180301360136  3.05463444834484 -1.01887215671567
 1  21.43163927782778  1.94676055395540 -1.63335458945895
 1  19.77703853705370  1.65641704400440 -1.91152157545755
 1  21.50238025332533  1.21126042984298  2.22106154775478
 1  22.43393803430343  1.87995652685268  0.77379164536454
 1  21.05294782738274  2.94738841504150  1.59607553875388

