%nproc=4
%Mem=2GB
# td=(NStates=1) CAM-B3LYP/6-31G(d,p) 

TD

0 1
12 -7.11159282858286  0.60843908460846  0.19483753235324
 6 -4.75972485358536 -1.94730684198420  0.49235487038704
 6 -4.90200950725073  2.81971629892989  1.35774923212321
 6 -9.43661825062506  3.11103350275028 -0.33650498349835
 6 -9.46624765236524 -1.74687486248625 -0.93813192819282
 7 -5.08292107370737  0.44245550605060  0.68711623202320
 6 -4.33189079437944 -0.66778739913991  0.85433733653365
 6 -2.87487844904490 -0.43630890299030  1.27417285848585
 6 -3.04484477367737  1.09165029752975  1.70639344574457
 6 -4.42333041974197  1.50743112351235  1.18037429862986
 6 -2.88129592059206  1.20139662696270  3.27240076617662
 6 -1.94445872677268 -0.56521053115312  0.13087241304130
 6 -0.48921717571757 -0.38181641304130  0.45220380328033
 6  0.42140151855186 -0.66303973607361 -0.71572322412241
 8  0.03815436513651 -0.97032843664366 -1.83879315961596
 8  1.69427645264526 -0.50535544234423 -0.33963818391839
 7 -7.15548315681568  2.64149555685569  0.35013016981698
 6 -6.08837596859686  3.34633558745875  0.81671965596560
 6 -6.49728771847185  4.80784141454145  0.84843260776078
 6 -7.77388798419842  4.84700458715872  0.36571347834783
 6 -8.23548410161016  3.48654894619462  0.04893523272327
 6 -5.61350713191319  5.94362545384538  1.42760928612861
 6 -8.64489370177018  6.04257932593259  0.26554657655766
 6 -8.27227642544254  7.25128121242124  0.06041177887789
 7 -9.18307334303430  0.68346482478248 -0.54628633393339
 6 -9.95006666566657  1.75926660926093 -0.57430255445545
 6 -11.27211195409541  1.40280127052705 -0.92831758135814
 6 -11.29315783648365  0.07435131243124 -1.19015828202820
 6 -9.97454733843384 -0.37988647674767 -0.78083738663866
 6 -12.32615085718572  2.45212749364936 -1.20025055595560
 6 -12.25703574927493 -0.75561662386239 -1.89616479367937
 6 -12.14598093009301 -1.09797368256826 -3.39199730513051
 7 -7.17600385248525 -1.34377373897390 -0.12812593129313
 6 -8.28964418671867 -2.22113805330533 -0.52235004090409
 6 -7.84452211971197 -3.58604278717872 -0.53655208420842
 6 -6.47536305830583 -3.58873318881888 -0.18193068516852
 6 -6.20099487768777 -2.24021017551755  0.18940056145615
 6 -8.68667901260126 -4.77821063996400 -0.79810935793579
 6 -5.25547208490849 -4.35735172047205  0.14557305720572
 8 -5.06275763756376 -5.56924957855786  0.26532256705671
 6 -4.24961837183718 -3.32624555865587  0.52525341734173
 6 -3.51089545374537 -3.70711679627963  1.78701988168817
 8 -3.73493714831483 -3.17148038083808  2.93222693799380
 8 -2.59502084998500 -4.64617276977698  1.66147423542354
 6 -1.83500613911391 -5.09171964126413  2.82838417541754
 6  2.77017079367937 -0.74256351405140 -1.20611598649865
 6  4.17117043944394 -0.49162301170117 -0.64514704340434
 6  5.11725533293329  0.30406373087309 -1.02588248844884
 6  5.04390180678068  1.20916545284528 -2.27003409450945
 6  6.42114857245725  0.44401320822082 -0.27746443264326
 6  7.57169490839084 -0.15360724262426 -1.02883255195520
 6  8.91035011741174 -0.14054378787879 -0.18335092929293
 6  10.17297819081908 -0.56682378067807 -0.86300269466947
 6  10.15064225042504 -2.06903623852385 -1.24265592709271
 6  11.38508962606261 -0.30730162076208  0.01007120582058
 6  12.75805297429743 -0.52999951585159 -0.56051659145915
 6  13.98063375117512 -0.06115287848785  0.23608082108211
 6  15.37255259925993 -0.19728233993399 -0.43115616591659
 6  15.63360746294630 -1.65182796859686 -0.73741102090209
 6  16.43591684568457  0.47815220132013  0.52105128982898
 6  17.75782148644864  0.62842096789679 -0.11275955585559
 6  18.84256965646565  1.13312515931593  0.88329069076908
 6  20.26464414421442  1.32032777737774  0.09931953555356
 6  20.22269249814982  2.23253890189019 -1.08133395479548
 6  21.36684455855586  1.80645501490149  1.18950565216522
 1 -4.04253451195120  3.64128250995100  1.42317683868387
 1 -10.16881063276328  3.90874845874587 -0.66956125872587
 1 -10.20358962076208 -2.54294434913491 -1.06784033153315
 1 -2.76513520422042 -1.03978364206421  2.07200443904390
 1 -2.18093773177318  1.70244873347335  1.32204657115711
 1 -1.88477220052005  1.08503399239924  3.68027824122412
 1 -3.18442322852285  2.26507596419642  3.70012457995800
 1 -3.62654363556356  0.45047941564156  3.68538242274227
 1 -2.07350987788779 -1.53660958135814 -0.22416740274027
 1 -2.33017721992199  0.04900699199920 -0.59211431303130
 1 -0.24906200020002  0.59167709120912  0.97844009590959
 1 -0.28969492319232 -1.23028600400040  1.14912778867887
 1 -4.86915908360836  6.18201337643764  0.59299108130813
 1 -6.33275794609461  6.69207900670067  1.60326501570157
 1 -5.14122735153515  5.58774394579458  2.33010668936894
 1 -9.66853435233523  5.78588152425243  0.52697054155416
 1 -8.94639527992799  8.05020360986098  0.24315490879088
 1 -7.25592062866287  7.39075964516452 -0.48511298189819
 1 -11.89594500730073  3.07265457075708 -2.01160745914591
 1 -13.14761997549755  2.06716235433543 -1.88278180188019
 1 -12.62927988938894  2.98912199759976 -0.48906040404040
 1 -12.38160068816882 -1.84923732193219 -1.50571077897790
 1 -13.26474247784778 -0.22000581358136 -1.81332868986899
 1 -12.91946241244124 -1.75368660786079 -3.62182518021802
 1 -12.12496267026703 -0.18966769266927 -3.92476005100510
 1 -11.15106845444545 -1.55272821682168 -3.66282539803980
 1 -9.09631052695270 -4.96417926622662 -1.78959654105411
 1 -8.21583528452845 -5.71212132033203 -0.44988921702170
 1 -9.53734590039004 -4.74950173717372 -0.27772602880288
 1 -3.40205033703370 -3.38641022552255 -0.11657831083108
 1 -1.09548063806381 -4.28166654395439  3.24635132213221
 1 -2.39646483388339 -5.29311995439544  3.68120534263426
 1 -1.28888031453145 -6.12683686078608  2.64748145104510
 1  2.76677134823482 -1.75566525642564 -1.53987806410641
 1  2.53248494869487 -0.21126820842084 -2.19189120892089
 1  4.21266049034904 -0.95852385858586  0.25642801900190
 1  3.94883581988199  1.29441053735374 -2.60760410271027
 1  5.38214151255125  2.23759815001500 -2.09373372797280
 1  5.74659998279828  0.87786811701170 -3.21373267256726
 1  6.73432645594559  1.56210243794379 -0.05094759705971
 1  6.45650899889989 -0.09637288618862  0.72015302240224
 1  7.38233197529753 -1.14440551225123 -1.35964009270927
 1  7.78099963096310  0.49126600310031 -1.97385753265326
 1  8.92282838003800  0.88379099559956  0.19181314381438
 1  8.82007983078308 -0.94051240664066  0.62017663626363
 1  10.18924063556356  0.01665643194320 -1.68719254985498
 1  9.40057655405541 -2.36514355865587 -2.13423838503850
 1  11.14907799249925 -2.44801131373137 -1.53236942294229
 1  9.95476294989499 -2.72341396399640 -0.28685077577758
 1  11.35305006720672  0.63417782528253  0.29358132153215
 1  11.38677908760876 -0.87009934803480  1.05600307330733
 1  12.82011774747475 -1.62486934833483 -0.73903223812381
 1  12.78618752475248 -0.09428994999500 -1.45944430823082
 1  13.80748225142514  1.01844510001000  0.18087474797480
 1  14.00861695199520 -0.62448488578858  1.08700387008701
 1  15.37810020212021  0.43765362576258 -1.20296995649565
 1  15.36282828382838 -2.11095782168217  0.21866426882688
 1  14.72895042684268 -2.05219341294129 -1.49080680108011
 1  16.73638169676968 -1.89167309590959 -1.43544565336534
 1  16.16306151585158  1.39505857855786  0.89634305530553
 1  16.51466316831683 -0.15483187888789  1.27894082578258
 1  18.18344753665367 -0.27541450525053 -0.56783279087909
 1  17.88569865106511  1.39967122562256 -0.90779426332633
 1  18.64527321012101  2.24024592419242  1.10591569246925
 1  19.16252252965296  0.57997160846085  1.75259161076108
 1  20.66317638433843  0.24805124092409 -0.38386063566357
 1  19.98065489878988  3.31714069896990 -0.51974224372437
 1  21.16779289318932  2.23279915781578 -1.49255050905090
 1  19.24647548074807  2.18245964826483 -1.85130555385539
 1  21.41987200250025  0.97966727052705  2.01075051665167
 1  22.33328796929693  2.04026255745575  0.58195246144614
 1  20.77585011761176  2.62418609480948  1.55839177037704

