%nproc=4
%Mem=2GB
# td=(NStates=1) CAM-B3LYP/6-31G(d,p) 

TD

0 1
12 -7.07665933523352  0.55264350505051  0.00954900350035
 6 -4.86747562866287 -1.91710382168217  0.43529916481648
 6 -4.72079138543854  2.89165349264926  1.11008446564656
 6 -9.32630721952195  3.15269766916692 -0.38213954695470
 6 -9.53851487908791 -1.75441561656166 -0.78025614061406
 7 -5.13817659925993  0.48407966846685  0.73397091749175
 6 -4.41092869816982 -0.63628424882488  0.90530243304330
 6 -2.94271523272327 -0.47458273037304  1.29755519671967
 6 -3.06475676487649  1.04321545404540  1.85690849724972
 6 -4.28938702540254  1.53810419081908  1.21523778497850
 6 -3.09209700070007  1.06272275957596  3.36838036413641
 6 -1.89318359925993 -0.57483149324932  0.20805013081308
 6 -0.45713396739674 -0.37264549594960  0.57909649254926
 6  0.55045442384238 -0.65250868296830 -0.55573722552255
 8  0.25050560026003 -1.07148855265527 -1.63957323762376
 8  1.76875390039004 -0.59740464726473 -0.11929614971497
 7 -7.07041464996500  2.62954436173617  0.29551470827083
 6 -6.02589972097210  3.31391234513451  0.75315329932993
 6 -6.30370836053605  4.75332596299630  0.82788055255526
 6 -7.60457105250525  4.82723260996100  0.37259416641664
 6 -8.09931048424842  3.50061035233523  0.00626096529653
 6 -5.46942272347235  5.80441153245325  1.41706823202320
 6 -8.58171738413841  6.00943601160116  0.40147016891689
 6 -8.23648284608461  7.32175826012601  0.30619635733573
 7 -9.16516155185518  0.73371985028503 -0.51268297359736
 6 -9.84402606160616  1.83843452605261 -0.75090021422142
 6 -11.18720346324633  1.51212220262026 -1.18073282288229
 6 -11.17342586328633  0.05830970827083 -1.24985425162516
 6 -9.91978186188619 -0.41655014311431 -0.86334563746375
 6 -12.26415465756576  2.39216149704970 -1.47578810971097
 6 -12.40783082878288 -0.81342240444044 -1.75496067326733
 6 -12.36487281928193 -1.25431931713171 -3.17355546094609
 7 -7.29986623872387 -1.42157151875188 -0.25056817551755
 6 -8.22939816211621 -2.23635957545755 -0.53999180508051
 6 -7.82614028152815 -3.59303348624862 -0.61502993199320
 6 -6.50946646864687 -3.53654797029703 -0.08283077517752
 6 -6.17469224742474 -2.18647480198020 -0.01308968756876
 6 -8.82335267996800 -4.71879469836984 -0.92952249924993
 6 -5.36949348704870 -4.39777576287629  0.15368386828683
 8 -5.12704406620662 -5.61255390899090  0.01205724052405
 6 -4.18604201420142 -3.27773070717072  0.56767765976598
 6 -3.62825718991899 -3.69374545914591  1.85776695639564
 8 -3.85948960356036 -3.15481871467147  2.90957467276728
 8 -2.87042839073907 -4.72910106260626  1.77759584758476
 6 -2.36229886838684 -5.25277574687469  2.98572990999100
 6  2.79294307090709 -0.64698395609561 -1.15914128902890
 6  4.16222954535454 -0.48397224662466 -0.57877040574057
 6  5.14918852625263  0.42547587208721 -1.04159405960596
 6  5.00409782638264  1.29389392569257 -2.26950404150415
 6  6.46446290389039  0.56586539343934 -0.28551523772377
 6  7.55353309220922 -0.24293617551755 -0.97434710341034
 6  8.93883296569657 -0.10062979647965 -0.09555214941494
 6  10.22179307230723 -0.57106420472047 -0.81985838023802
 6  10.15428261446145 -2.12442177707771 -1.04214587608761
 6  11.50321143824383 -0.22608349894990  0.00869106780678
 6  12.82099926892689 -0.53791030693069 -0.57761830163016
 6  13.98198388618862 -0.01587835103510  0.24394160716072
 6  15.36366171017102 -0.17492010371037 -0.43259630993099
 6  15.77434153635364 -1.59783256905691 -0.79661694149415
 6  16.45594884888489  0.44885927202720  0.40142932763276
 6  17.85059076337634  0.60161828762876 -0.23187146704670
 6  18.88629402890289  1.23169501630163  0.57648000970097
 6  20.21195887568757  1.41211695629563  0.04548415201520
 6  20.36650687958796  2.32446809480948 -1.15474129552955
 6  21.10654852895290  1.90387475687569  1.08325502710271
 1 -3.85359561806181  3.48031641334133  1.27247176817682
 1 -10.18317206890689  3.87793537743774 -0.60477478007801
 1 -10.32996225802580 -2.58078813351335 -0.81601514901490
 1 -2.91355004570457 -1.24212387608761  2.09727696629663
 1 -2.43877351535154  1.76326481508151  1.41056542304230
 1 -2.02749647294729  0.70264575357536  3.78716893029303
 1 -3.25796058225823  1.98695815241524  3.72968753625362
 1 -3.83302428362836  0.29102347004700  3.77409129362936
 1 -2.04981750865086 -1.54300022042204 -0.40438542454245
 1 -1.96406060826083  0.24443653495350 -0.50499560116012
 1 -0.23944103810381  0.70964888838884  1.11267351925193
 1 -0.07232318601860 -0.97889086448645  1.26614949084909
 1 -4.80064223192319  6.38142331743174  0.72594437663766
 1 -6.03727839813981  6.46482628142814  1.76926161536154
 1 -5.00044327312731  5.37139231063106  2.17180085878588
 1 -9.71189868876888  5.88815175127513  0.33281112561256
 1 -8.98855949634963  8.10633922342234  0.17615820912091
 1 -7.24220925752575  7.55476604580458  0.22468799819982
 1 -12.11495690849085  2.99070637593759 -2.37235353375338
 1 -13.33976919041904  2.01434707280728 -1.46950047374737
 1 -12.58898585998600  2.88297138253825 -0.60007150515051
 1 -12.45122765086509 -1.63667606580658 -0.98357856575657
 1 -13.28345434903490 -0.12330614361436 -1.56864422142214
 1 -13.37926839303930 -1.64494573377338 -3.27261025872587
 1 -12.55719589358936 -0.24044277017702 -3.97196477147715
 1 -11.74818816641664 -2.07101004500450 -3.53785290079008
 1 -9.21581247714771 -4.39433228152815 -1.88587616901690
 1 -8.37547124812481 -5.68494860306031 -1.13143737183718
 1 -9.59946211201120 -4.60470725772577 -0.14614287048705
 1 -3.44838497049705 -3.47159874437444 -0.38106475947595
 1 -1.80563165316532 -4.42075045234523  3.36684337133713
 1 -3.33245843324332 -5.43946458885889  3.52537976007601
 1 -2.05497692419242 -6.23463764086409  2.67196389928993
 1  2.57416208730873 -1.54784447434743 -1.66691076737674
 1  2.55804750495050  0.10281319971997 -1.93897591739174
 1  4.34258348264826 -1.14520252645264  0.11459383558356
 1  3.96700763706371  1.01798289458946 -2.81903524582458
 1  5.07681097949795  2.43451784198420 -1.95085944054405
 1  5.94963028582858  1.15880621082108 -2.79731103040304
 1  6.75598862216222  1.52007823552355  0.03267076477648
 1  6.34392774077408  0.13178993009301  0.75689669676968
 1  7.20330407250725 -1.42561363306331 -1.00659478817882
 1  7.85542707370737  0.08759563606361 -1.98206835373537
 1  9.06296239343934  0.99279189568957  0.13993795629563
 1  8.65866368916892 -0.53749210461046  1.03678829742974
 1  10.28417012851285 -0.27876311001100 -1.87890172077208
 1  9.30200669706971 -2.46273331763176 -1.52815777697770
 1  10.97569065376538 -2.39415592819282 -1.63236942294229
 1  10.08132560616062 -2.57005862846285 -0.21541363206321
 1  11.34574933713371  0.82969737723772  0.29484144754475
 1  11.53503391309131 -0.87448978707871  0.90900837383738
 1  12.86488222392239 -1.70418728012801 -0.72710104500450
 1  12.91638054405441 -0.04251477247725 -1.49793815761576
 1  13.66142764596460  0.85812906840684  0.59734639513951
 1  14.03802989328933 -0.64981741904190  1.34895006470647
 1  15.41916430853085  0.51369122952295 -1.37058671817182
 1  15.69737173817382 -2.28676540244024  0.16528893129313
 1  15.15229276107611 -2.04411260486049 -1.48613633403340
 1  16.85365342394240 -1.73087701630163 -1.48079018781878
 1  16.09933514321432  1.42946201890189  0.72604602560256
 1  16.39413111511151 -0.27971436713671  1.30515344704470
 1  18.27180637253726 -0.33292025582558 -0.65694170177018
 1  17.89601968316832  1.21191244974497 -1.05630911481148
 1  18.53187186998700  2.23932583218322  1.04828992989299
 1  18.88613489088909  0.60516412771277  1.51453780538054
 1  20.65898596529653  0.41798823462346 -0.30927317691769
 1  20.23787062036204  3.23614259915992 -0.72775304480448
 1  21.50151626552655  2.29959583748375 -1.40289154315432
 1  19.75941677487749  1.93059446174617 -2.05157558085809
 1  21.11357137243724  1.49223852765277  2.08390783238324
 1  22.29049368986899  2.01114964616462  0.87804207040704
 1  20.89725225782578  3.08176185238524  1.22242817401740

