%nproc=4
%Mem=2GB
# td=(NStates=1) CAM-B3LYP/6-31G(d,p) 

TD

0 1
12 -7.17019868916892  0.61837007770777  0.05792384098410
 6 -4.82777165826583 -1.96132824412441  0.44240987588759
 6 -4.88255756205621  2.76474080138014  1.24967842504250
 6 -9.44046863566357  3.07276967636764 -0.40141147414741
 6 -9.49761078867887 -1.68368854385439 -0.92886100110011
 7 -5.07771055265527  0.38395965646565  0.68576609700970
 6 -4.30975858115812 -0.72492311271127  0.83247515031503
 6 -2.89941090229023 -0.38591386348635  1.28961440264026
 6 -3.04807509670967  1.00945207770777  1.71500430683068
 6 -4.44839292599260  1.42956333673367  1.16980324152415
 6 -2.86510430143014  1.19062554985499  3.26534006010601
 6 -1.89495377627763 -0.58303231333133  0.08290761656166
 6 -0.46602485648565 -0.26272450385038  0.47324590749075
 6  0.48432781118112 -0.70288372047205 -0.57088874067407
 8  0.16088663836384 -1.13374477827783 -1.65770505080508
 8  1.76471349634963 -0.50898580538054 -0.06155037513751
 7 -7.08144575307531  2.61141254855486  0.32709786658666
 6 -6.07787491849185  3.30428138203820  0.84567255125513
 6 -6.41434942464246  4.71631226162616  0.94042180668067
 6 -7.76708730413041  4.77935782248225  0.58409531653165
 6 -8.20055060826083  3.37476776807681  0.16459679887989
 6 -5.52638842004200  5.79791088238824  1.32742926812681
 6 -8.61719093149315  5.96471153915392  0.35383540544054
 6 -8.10873007080708  7.29644572887289  0.11186692439244
 7 -9.18000303600360  0.70605708400840 -0.63201490679068
 6 -9.94955661466147  1.82824350695070 -0.66222134633463
 6 -11.24475921882188  1.47177816821682 -1.03028777837784
 6 -11.34378289898990  0.04457833513351 -1.17006627282728
 6 -9.93475335903590 -0.36386487458746 -0.96061536443644
 6 -12.29513775587559  2.54274655555556 -1.22657318821882
 6 -12.42143218891889 -0.68908997119712 -1.84591976917692
 6 -12.39966629862986 -1.11211509670967 -3.26046415181518
 7 -7.23012926502650 -1.33583294489449 -0.27341045974597
 6 -8.22622784508451 -2.19732567206721 -0.70383818971897
 6 -7.74151181868187 -3.58987317021702 -0.61463989298930
 6 -6.45914143614362 -3.52448676417642 -0.27103959605961
 6 -6.14856963516352 -2.07467362186219 -0.00904928352835
 6 -8.52437278197820 -4.86516933583358 -1.05765531253125
 6 -5.24909144684468 -4.32858884418442  0.15293379327933
 8 -5.22479384118412 -5.55473812741274  0.19680571537154
 6 -4.12017542754275 -3.31377431153115  0.48443933593359
 6 -3.53537790199020 -3.61568765336534  1.85996717641764
 8 -3.89756341094109 -3.14366759955996  2.96945066036604
 8 -2.67154850275028 -4.62629078157816  1.70866895489549
 6 -2.11449408790879 -5.03488395769577  3.05206654365437
 6  2.80726450305030 -0.70946020372037 -1.01248662356236
 6  4.08211153355336 -0.39194304370437 -0.36273880258026
 6  5.15585919331933  0.37860118461846 -0.84233413361336
 6  5.22455987258726  1.05783031933193 -2.13689078017802
 6  6.43053951155115  0.22106091299130 -0.11623831003100
 6  7.57750548944894 -0.39185106700670 -0.86542621132113
 6  8.89745882828283 -0.17675740924092 -0.03560615481548
 6  10.19490038303830 -0.63384048234823 -0.81257765216522
 6  9.96602378857886 -2.01424075897590 -1.36835849734974
 6  11.45642675977598 -0.36861775237524 -0.04240404170417
 6  12.80176734573457 -0.46930344624462 -0.85583612341234
 6  14.01467715551555 -0.03534029722972  0.09295650865087
 6  15.37886323032303 -0.27498010971097 -0.45093814411441
 6  15.69430353255326 -1.75429821562156 -0.61514879467947
 6  16.44928818281828  0.41067545364536  0.47362654735474
 6  17.78249395369537  0.64410253605361 -0.18551683158316
 6  18.84239963946395  1.43135498229823  0.62389475117512
 6  20.30031771157116  1.41185693029303  0.08478808240824
 6  20.30007023592359  2.20865651365137 -1.26530235163516
 6  21.20703857795780  2.07465183458346  1.15102180378038
 1 -4.19092935143514  3.59714809650965  1.72882740374037
 1 -10.30376412811281  3.93322090599060 -0.32108641124112
 1 -10.10430969276928 -2.60608066276628 -1.26494004150415
 1 -2.75363405410541 -1.06247591129113  2.10711795039504
 1 -2.44932457045704  1.66601509010901  1.17677204370437
 1 -1.83113683698370  0.98586407540754  3.58878909230923
 1 -3.03449823602360  2.29498895549555  3.61856642414241
 1 -3.80271125232523  0.50274464216422  3.65448933343334
 1 -2.17771029792979 -1.59359527992799 -0.48826381238124
 1 -2.10371457365737  0.31697378867887 -0.62555765736574
 1 -0.20365745974597  0.95230315381538  0.64929718161816
 1 -0.44476042974298 -0.90469344474447  1.30526340224022
 1 -4.89968213591359  6.20416559165917  0.46361814401440
 1 -6.06763143344334  6.43728352715272  1.90439512871287
 1 -4.85582881168117  5.35016018741874  2.05817949664966
 1 -9.75036253515352  5.85136807290729  0.33921176567657
 1 -8.94016465686569  8.12786137563756 -0.17635704240424
 1 -7.06771180778078  7.46507707690769 -0.12986745734573
 1 -11.92949836263626  3.19033633893389 -2.03071937033703
 1 -13.36934214771477  2.20942658075808 -1.48397192089209
 1 -12.35714267566757  3.00272335773577 -0.20177167516752
 1 -12.59390191829183 -1.40596299449945 -1.19820002790279
 1 -13.42156816041604 -0.16101991499150 -1.40132748974897
 1 -13.31864233043304 -1.61477271647165 -3.51994499219922
 1 -12.37594776877688 -0.25829455535554 -4.11938951395140
 1 -11.51180452805280 -1.67280022402240 -3.52886200170017
 1 -8.60465136103610 -4.60764361266127 -2.20497807920792
 1 -8.21570527152715 -5.76602671087109 -0.91338556665667
 1 -9.52327449324932 -4.95706249324932 -0.58041629782978
 1 -3.35162529452945 -3.30654223872387 -0.34578123112311
 1 -1.36534762476248 -4.29719809710971  3.52599928692869
 1 -2.74421960936094 -5.16414705710571  3.82683990609061
 1 -1.48393982048205 -5.87558173527353  2.77422412531253
 1  2.73978864996500 -1.58815850575057 -1.39515359165917
 1  2.64575627582758  0.13598651705171 -1.74734675447545
 1  4.23737296159616 -0.97042504870487  0.60088246444644
 1  4.28698963526353  1.25770686698670 -2.55705904820482
 1  5.69832313071307  1.90239462966297 -2.20046440104010
 1  5.73944926772677  0.38003833403340 -3.11407270657066
 1  6.63046606990699  1.31614784248425  0.21058855655566
 1  6.39400274827483 -0.55722897179718  0.83412441954195
 1  7.34723846594659 -1.32819389108911 -1.12150627932793
 1  7.52101363236324  0.19635651215122 -1.85361550845084
 1  8.96085218241824  0.93324594109411  0.25880984348435
 1  8.61760958375837 -0.80674903030303  0.93499811841184
 1  10.19756146764676  0.08755352165217 -1.77687151775177
 1  9.01162765916592 -1.85703274757476 -1.99758471967197
 1  10.83684676937694 -2.37044355695569 -1.99556574257426
 1  9.98750622422242 -2.97359898249825 -0.62772486318632
 1  11.36849161136114  0.42538694619462  0.34495645904590
 1  11.46620703040304 -0.96502884098410  0.89453692669267
 1  12.87422315801580 -1.50073693509351 -1.07255559045905
 1  12.73187209320932  0.18579805880588 -1.79909827362736
 1  13.74373587678768  0.88577183268327  0.56550321082108
 1  13.83994008430843 -0.65443788108811  1.11352652235224
 1  15.37832022412241  0.32360222062206 -1.44480413991399
 1  15.67504950595060 -2.05942266816682  0.41075347774777
 1  14.87713524532453 -2.27192538613861 -1.22907062746275
 1  16.67035509410941 -2.20795472407241 -0.94012612141214
 1  16.10002521222122  1.34486355905591  0.67817123812381
 1  16.61337303930393 -0.12045844154415  1.35768870057006
 1  18.23254244614462 -0.29964692849285 -0.60918692629263
 1  17.77527760896090  1.21175243374337 -1.07926141004100
 1  18.31085976877688  2.42334423402340  0.75872097299730
 1  18.77921419881988  0.78593220452045  1.77489384098410
 1  20.70450051675168  0.44000043584358 -0.14467671727173
 1  20.05065189848985  3.30403938883888 -1.26229649914991
 1  21.24837095099510  2.34549042694269 -1.83439469346935
 1  19.62202303550355  1.82744414671467 -1.94446486978698
 1  21.25413542884288  1.60450975477548  2.12592203380338
 1  22.32378701920192  2.28427695889589  0.86949121532153
 1  20.90636316891689  3.11818549474948  1.20660659185919

