%nproc=4
%Mem=2GB
# td=(NStates=1) CAM-B3LYP/6-31G(d,p) 

TD

0 1
12 -7.16756842614261  0.59550779147915  0.15418346694669
 6 -4.75233411451145 -1.99728183948395  0.59525516041604
 6 -4.76685599189919  2.79192351965197  1.14146760396040
 6 -9.46042063086309  3.07262966236624 -0.32195352835284
 6 -9.55631665926593 -1.81488166316632 -0.79797791279128
 7 -5.10646342794279  0.40207146764676  0.75896341674167
 6 -4.28916652195220 -0.72123274367437  0.82950485328533
 6 -2.91962292349235 -0.36816208830883  1.19944538573857
 6 -3.04672496169617  1.05400653315332  1.61923472987299
 6 -4.42696078277828  1.47617799819982  1.19893615481548
 6 -2.82644043504350  1.39757624492449  3.14113763986399
 6 -1.94091837273727 -0.58892290239024  0.03162248804880
 6 -0.43215146914691 -0.36002423382338  0.40595917881788
 6  0.56501587998800 -0.59181261336134 -0.72247389918992
 8  0.25299584928493 -1.05314671847185 -1.72863214351435
 8  1.82877990299030 -0.33202810961096 -0.28299251935194
 7 -7.16217382588259  2.68190959825983  0.37723288008801
 6 -6.09215634663466  3.37172812671267  0.84648263226323
 6 -6.54538252795280  4.72764339473947  0.86289405390539
 6 -7.81120171557156  4.85428531523152  0.44386129312931
 6 -8.25074562776278  3.44700499179918  0.17973831303130
 6 -5.53308909010901  5.85054614591459  1.17533405860586
 6 -8.75526473887389  5.94550961896190  0.34254427632763
 6 -8.38065726352635  7.31762784708471  0.19542528022802
 7 -9.19483451915191  0.63501998029803 -0.50185189048905
 6 -9.93810546954695  1.72981366396640 -0.63689881408141
 6 -11.16249099199920  1.44705569596960 -1.06769151875187
 6 -11.27347586828683  0.04864874217422 -1.16890615681568
 6 -9.90309019271927 -0.42429091719172 -0.89856915981598
 6 -12.21226946904691  2.48219049994999 -1.46183671457146
 6 -12.45380542624262 -0.73566462866287 -1.55051022822282
 6 -12.20807713971397 -1.17245113031303 -3.08855696109611
 7 -7.20395664776478 -1.40545990759076 -0.11682480118012
 6 -8.19210443274327 -2.25734167366737 -0.53715152105211
 6 -7.78223589108911 -3.60063424632463 -0.57804623362336
 6 -6.41796731873187 -3.53861817731773 -0.06174866696670
 6 -6.11662644084408 -2.13089924442444  0.08118974037404
 6 -8.58986933163316 -4.83282610151015 -0.83036258325833
 6 -5.28969550725073 -4.35304128942894  0.17600610051005
 8 -5.14835619741974 -5.59201185478548  0.00214624942494
 6 -4.02634604460446 -3.24965789988999  0.56143703570357
 6 -3.49283364756476 -3.70299638423842  1.87705888558856
 8 -3.72579623422342 -3.05839907270727  2.90402411771177
 8 -2.85303665156516 -4.77134528702870  1.73491157915792
 6 -2.23268590709071 -5.25113558285829  3.03698503550355
 6  2.90494427102710 -0.58216747444744 -1.23504887978798
 6  4.19447276967697 -0.37016086548655 -0.59842237093709
 6  5.15075868326833  0.39796312081208 -0.93188308850885
 6  5.05959337593759  1.31430596689669 -2.21187827892789
 6  6.52226868446845  0.42773158005801 -0.19529621582158
 6  7.71067880678068 -0.08899078097810 -1.04385405410541
 6  8.84728381078108 -0.25847558105811 -0.19424201840184
 6  10.16968786178618 -0.61484858315832 -0.99388578297830
 6  10.07136432263226 -2.09500883578358 -1.44308597009701
 6  11.31980309740974 -0.29894078467847  0.02770296899690
 6  12.76333350235023 -0.43308982488249 -0.62899343914391
 6  13.97756344414442 -0.10764752795280  0.22732994599460
 6  15.34747009100910 -0.15749836153615 -0.51088413871387
 6  15.64617872007201 -1.59771255705571 -0.94381166096610
 6  16.35949920392039  0.47658204430443  0.45655484018402
 6  17.74601030533053  0.55538366416642 -0.15122340224022
 6  18.73704910441044  1.22182402920292  0.79714207590759
 6  20.25381306110611  1.22677842244224  0.35264486808681
 6  20.45900612951295  2.01116676467647 -1.02883870527053
 6  21.09524739883988  1.84618898829883  1.35755245684568
 1 -3.94773503200320  3.39322770447045  1.35275979697970
 1 -10.25001875357536  3.91891947584759 -0.58151245384538
 1 -10.45391465326533 -2.47340739543954 -0.86599014651465
 1 -2.75469416011601 -1.09934959865987  1.95546278487849
 1 -2.25143478147815  1.73629211781178  1.04277864436444
 1 -1.85305902920292  1.04873036203620  3.46487670107011
 1 -2.68266305250525  2.55628508510851  3.19627419491949
 1 -3.80747172837284  1.10244461216122  3.87745162966297
 1 -2.06295882278228 -1.65598151855186 -0.27885287128713
 1 -2.11207540974097  0.05758785008501 -0.95245034663466
 1 -0.07291438543854  0.61032895639564  0.85311756365637
 1 -0.11034698839884 -0.89422239763976  1.17613048894889
 1 -5.05758792649265  6.33035821092109  0.11695347754775
 1 -6.21211588188819  6.64669446824682  2.07495218441844
 1 -4.78896212501250  5.55354052545255  1.85115879457946
 1 -9.85131263016302  5.71009394549455  0.84270211471147
 1 -9.08630927132713  8.18498708820882  0.35345593889389
 1 -7.55975101170117  7.52442301150115 -0.44320879147915
 1 -12.10622603540354  2.77598490379038 -2.57234353275328
 1 -13.14130934443444  2.04944058215822 -1.47314083778378
 1 -12.27223418481848  3.35780886628663 -0.66304780278028
 1 -12.57716024412441 -1.71942434063406 -0.88265847374738
 1 -13.34927093069307 -0.25583939693969 -1.55734309130913
 1 -13.09401986818682 -1.77884912411241 -3.37259025672567
 1 -12.10370054405441 -0.37065579147915 -3.96559413441344
 1 -11.33272662026203 -1.69014195819582 -3.23469258475848
 1 -8.90737163306331 -4.84587743604360 -1.90050763216322
 1 -8.05558925992599 -5.76510661886189 -0.62889711781178
 1 -9.52433459925992 -4.83202998999900 -0.29032728892889
 1 -3.29968010001000 -3.59713129762976 -0.17344399739974
 1 -1.76144723472347 -4.46185456275628  3.29385607260726
 1 -3.01582677007701 -5.69447008940894  3.64847206930693
 1 -1.52585401190119 -6.06357053415342  2.71727843074307
 1  2.80858552965297 -1.78526821672167 -1.45930000630063
 1  2.62854455465547 -0.16898397999800 -2.37001902170217
 1  4.27442666696670 -0.97670567676768  0.32188456465647
 1  4.06100703700370  1.24223531983198 -2.34068741104110
 1  5.52203550195019  2.39983437363736 -1.94813916851685
 1  5.72436775957596  0.92640297049705 -3.10440173947395
 1  6.98222124542454  1.29529575727573  0.11702920062006
 1  6.44327767576758 -0.21811506040604  0.76937794489449
 1  7.30662440454045 -1.14398547024702 -1.46690081878188
 1  7.75385691669167  0.59387626412641 -1.85212535943594
 1  8.96976307350735  0.76269888638864  0.44797876037604
 1  8.79612743554355 -1.07498585398540  0.51763638223822
 1  10.15144685618562  0.07630239653965 -1.90318414901490
 1  9.16571306770677 -2.15775281958196 -2.14681964316432
 1  11.03087617231723 -2.27042355495550 -2.00346653265327
 1  10.12412988658866 -2.69879150175017 -0.47665975667567
 1  11.31641640384038  0.55701010851085  0.25744770817082
 1  11.53870428012801 -1.08664100220022  0.81022849584959
 1  13.12271800750075 -1.44525138653865 -1.27910624552455
 1  12.79208811481148  0.43508298729873 -1.45854421822182
 1  13.91815331853185  0.79730298579858  0.61059772027203
 1  13.73024911521152 -0.96227866516652  1.02238740844084
 1  15.01984437653765  0.58251811221122 -1.30864052355236
 1  15.56557855885589 -1.89962668856886  0.13873627602760
 1  14.79433696549655 -2.04721291489149 -1.62639035943594
 1  16.63959201780178 -1.76992092069207 -1.31550365916592
 1  15.83144835453545  1.50797987068707  0.72367578857886
 1  16.45740744274428 -0.27766416211621  1.29237216891689
 1  18.29023821572157 -0.38313527732773 -0.52987899549955
 1  17.45507558875888  1.43206446494649 -0.96952043594359
 1  18.46789547234723  2.40559245884588  0.99569467036704
 1  18.53614989238924  0.84268788008801  1.69178553015302
 1  20.65946601330133  0.41470790659066  0.20866861726173
 1  20.27256408970897  3.16013499839984 -0.87747801730173
 1  21.47193330723072  2.03736961486149 -1.34660591459146
 1  19.90746157935794  1.69425082738274 -1.87382780608061
 1  21.11345136043604  1.17020632443244  2.21628106970697
 1  22.32358699919992  2.03374190539054  0.98864313051305
 1  20.64033656625663  2.68201187738774  1.69186511771177

