%nproc=4
%Mem=2GB
# td=(NStates=1) CAM-B3LYP/6-31G(d,p) 

TD

0 1
12 -7.10535220452045  0.65694393509351  0.03518156675668
 6 -4.86461534263426 -1.90874298559856  0.47648328322832
 6 -4.80418972527253  2.85154948224822  1.21948540574057
 6 -9.40695528432843  3.20404280368037 -0.43375470847085
 6 -9.53584461206121 -1.78518869386939 -0.85223333833383
 7 -5.16997977957796  0.50631189168917  0.77193471387139
 6 -4.41440904620462 -0.70208082848285  0.90162206500650
 6 -2.98087904910491 -0.40639591169117  1.31063650485049
 6 -3.09365965516552  1.12178331083108  1.78342114851485
 6 -4.41696978367837  1.53019339973997  1.23808006920692
 6 -2.94941273227323  1.27564405170517  3.23398692479248
 6 -1.91510579147915 -0.64863887398740  0.20942026782678
 6 -0.46064431843184 -0.38639687108711  0.70512909580958
 6  0.48200757915792 -0.61072450455045 -0.47540919271927
 8  0.28364891459146 -1.02110351415141 -1.58038731903190
 8  1.80229725472547 -0.38710361716172 -0.10028424852485
 7 -7.06781438993899  2.59265067236724  0.27044220102010
 6 -6.05314244524452  3.42847380128013  0.86244422842284
 6 -6.46558454815482  4.74501513191319  0.97942570707071
 6 -7.70243083848385  4.86584647134713  0.43436034303430
 6 -8.15976652985298  3.54418470977098  0.01786212541254
 6 -5.64630041124112  5.88196928822882  1.50542706790679
 6 -8.62970218261826  6.04230929892989  0.22284230613061
 6 -8.07608680648065  7.32169825412541  0.04007974567457
 7 -9.03110814651465  0.63665014331433 -0.63813551885189
 6 -9.84884654365436  1.81686236883688 -0.77752287648765
 6 -11.20884562746275  1.47440843124312 -1.21691644124412
 6 -11.20644916561656  0.02010588788879 -1.22650191639164
 6 -9.89709959365937 -0.45415390349035 -0.87454675757576
 6 -12.42084032613261  2.36425870677068 -1.34472500340034
 6 -12.44657470317032 -0.74371543374337 -1.63416859405941
 6 -12.41338767076708 -1.12398628382838 -3.18514662006201
 7 -7.24539079117912 -1.38420778237824 -0.29191230993099
 6 -8.21027624992499 -2.22922886238624 -0.64135194109411
 6 -7.80374804230423 -3.54372855575558 -0.62619104810481
 6 -6.41667718971897 -3.46795111061106 -0.25006749884989
 6 -6.21442622082208 -2.17113326782678  0.06600822222222
 6 -8.67636798149815 -4.85545836473647 -0.75371491849185
 6 -5.30547708540854 -4.31661764706471  0.08964746464646
 8 -5.08279964176418 -5.48632128572857 -0.05651961716172
 6 -4.19122253225323 -3.29131206530653  0.50468136013601
 6 -3.50942530673067 -3.67729381398140  1.84440562026203
 8 -3.65106876147615 -3.17409064186419  2.96134985028503
 8 -2.61259260716072 -4.63545169766977  1.65866395439544
 6 -2.08349098759876 -5.20262073137314  2.97301863886389
 6  2.84405818241824 -0.83686294399440 -1.10113548844884
 6  4.12374569696970 -0.59921377077708 -0.39076160486049
 6  5.08177178457846  0.20684400890089 -0.82882278247825
 6  5.04009142574257  1.00866540284028 -2.13125021612161
 6  6.40416687428743  0.48801760866087 -0.17343402960296
 6  7.58181592049205 -0.30454233613361 -0.92825249394940
 6  8.88332741514151 -0.43613334683468 -0.16336893109311
 6  10.18767966096610 -0.70510760906091 -0.94815120952095
 6  10.11234842104211 -2.19441877677768 -1.54832649414941
 6  11.42049316641664 -0.39508039863986  0.03300349904991
 6  12.73625079407941 -0.56491300720072 -0.64985552535254
 6  13.96361204900490 -0.19145590879088  0.18733594659466
 6  15.34062940694069 -0.18123073477348 -0.53304635493549
 6  15.74414851705171 -1.55447823362336 -0.92990026982698
 6  16.36650990499050  0.57727211331133  0.38441762646265
 6  17.77260296459646  0.70632875867587 -0.25285356525653
 6  18.69339473897390  1.33845569236924  0.67887024872487
 6  20.18154583438344  1.45008075267527  0.19906951055106
 6  20.30198042694269  2.41958760676068 -1.01325714711471
 6  21.16396427052705  1.90999536893689  1.31097779937994
 1 -4.00489074757476  3.47298568026803  1.65081960296030
 1 -10.16355010671067  3.96815439933993 -0.85179948254825
 1 -10.12839210101010 -2.57719777447745 -1.14004755225523
 1 -2.80901959265927 -0.93035269896990  2.32729996859686
 1 -2.32742238023802  1.54436292489249  1.40671503800380
 1 -1.91321504480448  1.01861735073507  3.63404361776178
 1 -3.17755254145415  2.19268872547255  3.61883645114511
 1 -3.55485646684668  0.58599296699670  3.78735261976198
 1 -1.95873840074007 -1.60307622802280 -0.17033201920192
 1 -2.09872407460746  0.31912400370037 -0.56847194879488
 1 -0.31401849584958  0.57880580408041  1.11566381828183
 1 -0.03227918161816 -1.26987996339634  1.40313318921892
 1 -5.02380454815482  6.25827100220022  0.75795757795780
 1 -6.11578624892489  6.69974977377738  1.92857754695470
 1 -4.98186141494149  5.45069024042404  2.24621830053005
 1 -9.62607010591059  5.89401233733373  0.10067791229123
 1 -8.62515315571557  8.28085667516752 -0.11015042174217
 1 -6.91048608520852  7.39055962516252  0.26911244064406
 1 -12.47863327612761  3.09719702500250 -2.19668596699670
 1 -13.40063527702770  1.62974861296130 -1.32667619131913
 1 -12.45897285868587  3.04239732513251 -0.53559505750575
 1 -12.54903743184318 -1.72285468366837 -0.99291949984999
 1 -13.30306631023102 -0.21359517251725 -1.67604496149615
 1 -13.41498196439644 -1.71209244844484 -3.33847684538454
 1 -12.18960913491349 -0.16267499339934 -3.72250982598260
 1 -11.47092043964397 -1.72591553555356 -3.34460357585759
 1 -9.04127502340234 -5.04425727402740 -1.66154373577358
 1 -7.93508720972097 -5.60064017221722 -0.60019424752475
 1 -9.44978714451445 -4.95594238123812  0.05357710151015
 1 -3.40065019701970 -3.29267085158516 -0.10999765276528
 1 -1.55719680968097 -4.37593597089709  3.33236992399240
 1 -3.03064825222522 -5.47629827222722  3.56576379847985
 1 -1.54626605310531 -6.10085426252625  2.65179188208821
 1  2.46088075917592 -1.96146583648365 -1.28780285658566
 1  2.69675137533753 -0.38912599419942 -1.98970098989899
 1  4.17742696699670 -1.30506851305131  0.62350472667267
 1  4.01540247654765  1.25396649294930 -2.69341268356836
 1  5.70080337873787  1.90137452765276 -2.23630798539854
 1  5.45756107890789  0.45522585278528 -3.10591189048905
 1  6.57016003930393  1.40899712741274 -0.01188369066907
 1  6.30305365336534  0.06240299139914  0.80883189028903
 1  7.03398714081408 -1.35510658235824 -1.12889701840184
 1  7.95856738773877  0.29362623912391 -1.94969511641164
 1  8.97994409160916  0.58716133263326  0.40164412691269
 1  8.82563038583858 -1.23347170257026  0.59803442204220
 1  10.40810252175218 -0.04870010371037 -1.75142897349735
 1  9.45733222962296 -2.46335337963796 -2.44704966616662
 1  10.98122120682068 -2.33108962156216 -2.08791497749775
 1  10.01488896249625 -2.95929755235523 -0.66361845254525
 1  11.23011777397740  0.76307071457146  0.16621858525853
 1  11.46833724342434 -0.85297763586359  1.19307678067807
 1  12.77144287998800 -1.68642550395039 -0.94161249614961
 1  12.85425433143314  0.05438491749175 -1.52460082388239
 1  13.73565506870687  0.70580383588359  0.50930759125913
 1  13.96097218751875 -0.86062850015001  0.91701687138714
 1  15.44941733383338  0.32239209960996 -1.54975463496350
 1  15.89610161116112 -2.20686741264126 -0.17082468006801
 1  15.11279881168117 -2.00908910251025 -1.64707242764276
 1  16.75433349194920 -1.50213414201420 -1.30971308010801
 1  15.88517372707271  1.58538761146115  0.50764418541854
 1  16.37864956695670 -0.17574397009701  1.23981691339134
 1  18.16783597549755 -0.36655361916192 -0.29388539613961
 1  17.59429951115112  1.40115137363736 -1.15564904880488
 1  18.45336401920192  2.38826072567257  0.74486958785879
 1  18.93767004440444  0.94417802910291  1.61166751835183
 1  20.60242030873087  0.54552098789879 -0.11457370697070
 1  19.98428526182618  3.45561454635464 -0.78357862736274
 1  21.28054416831683  2.44517039493949 -1.41792304630463
 1  19.68388922212221  2.24736613891389 -1.95668609190919
 1  21.14104411971197  1.19209851365137  2.01137057865787
 1  22.19930457095710  2.02021055225523  0.89607387358736
 1  20.82705523812382  2.91241491769177  1.65810174137414

