%nproc=4
%Mem=2GB
# td=(NStates=1) CAM-B3LYP/6-31G(d,p) 

TD

0 1
12 -7.15797746704670  0.59439768046805  0.01578962756276
 6 -4.89737861896190 -1.89313142444244  0.51436707160716
 6 -4.89375868216822  2.86215054235424  1.16286974417442
 6 -9.51689627842784  3.04917731713171 -0.27032836583658
 6 -9.47315834343434 -1.70781095609561 -0.93689180418042
 7 -5.18845162676268  0.55384664516452  0.70572809320932
 6 -4.40680828612861 -0.67101772217222  0.85778768156816
 6 -2.98551951315132 -0.26336160826083  1.22682812401240
 6 -3.15436572577258  1.17918905140514  1.67475028142814
 6 -4.48641672837284  1.51180156055606  1.21904816601660
 6 -3.07581537253725  1.34146063336334  3.23598712481248
 6 -1.82334661556156 -0.54852886298630  0.15365469126913
 6 -0.36431468546855 -0.36016424782478  0.67425600850085
 6  0.53441281968197 -0.63728716081608 -0.52105375717572
 8  0.15917646734673 -0.95553695749575 -1.64516379667967
 8  1.79539656465647 -0.32094700150015 -0.20716493659366
 7 -7.16491409990999  2.50861226852685  0.43423858065807
 6 -6.18914604560456  3.33493444734473  0.75373335733573
 6 -6.51814980468047  4.79437006740674  0.87181494599460
 6 -7.84131472687269  4.86983687038704  0.38827573457346
 6 -8.22663321652165  3.52411270257026  0.18722906210621
 6 -5.64834061526153  5.95963705500550  1.19522604780478
 6 -8.74562377477748  6.03859892789279  0.40530055195520
 6 -8.43820301810181  7.27177326162616  0.18108384608461
 7 -9.06416145184518  0.64984146244624 -0.53207491279128
 6 -9.87545920492049  1.72351303390339 -0.53944906910691
 6 -11.18566330923092  1.36138712911291 -1.08178292789279
 6 -11.18513703440344 -0.01403752645265 -1.24480374657466
 6 -9.86624650835084 -0.47619610771077 -0.88398770167017
 6 -12.42582082418242  2.38409068996900 -1.20316084698470
 6 -12.30465051075108 -0.91204226642664 -1.69309448664866
 6 -12.36470280228023 -1.15232911811181 -3.28651675707571
 7 -7.19086533863386 -1.39990935253525 -0.11053417211721
 6 -8.17701292359236 -2.26689262876288 -0.60849865576558
 6 -7.72181984948495 -3.66932111501150 -0.47697612661266
 6 -6.40070559255926 -3.52517683318332 -0.16529902200220
 6 -6.11478625682568 -2.10175633013301 -0.02961133973397
 6 -8.51858220292029 -4.87922074097410 -0.93043259025903
 6 -5.27982452015202 -4.30495648094810  0.21624012391239
 8 -5.05058642044204 -5.49163181678168  0.20872690749075
 6 -4.13573698369837 -3.26383931803180  0.54858575057506
 6 -3.43942830703070 -3.71121720632063  1.82860404010401
 8 -3.68203185778578 -3.15208844164416  2.92900661596160
 8 -2.67643899179918 -4.75428358085809  1.79119720772077
 6 -1.97696033453345 -5.23361383068307  2.96120745774577
 6  2.83216699329933 -0.63045230293029 -1.14332970787079
 6  4.17878120052005 -0.37569141854185 -0.50328285698570
 6  5.14331793919392  0.39635295979598 -1.04547444764476
 6  5.06096351295129  1.23407794409441 -2.34827191829183
 6  6.44685114271427  0.54940374727473 -0.26270295649565
 6  7.54591233013301 -0.09941182308231 -1.15183485218522
 6  8.82406148854886 -0.18097783128313 -0.28680127432743
 6  10.23176406940694 -0.63986108440844 -1.07520391479148
 6  10.19276646284628 -2.08778811371137 -1.51698335983598
 6  11.49894101120112 -0.43082397299730 -0.20524032533253
 6  12.80571774077408 -0.65911242714271 -0.78064860466047
 6  13.91947763556356 -0.17885464866487  0.06828404140414
 6  15.38774411841184 -0.18316092779278 -0.49503255355536
 6  15.67215131733173 -1.72423520932093 -0.87025430523052
 6  16.37460071407141  0.40540492659266  0.55525471017102
 6  17.86809251355136  0.48480660646065 -0.10429870977098
 6  18.79764516401640  1.23698554535454  0.87342970467047
 6  20.28927660746075  1.34266001060106  0.41081068466847
 6  20.47884811371137  1.98950459845985 -1.07765358675868
 6  21.21610948504851  1.93893826322632  1.49521622322232
 1 -3.93297355585559  3.58374675637564  1.40301482248225
 1 -10.23715746744674  3.86755433933393 -0.42506680928093
 1 -10.36798606040604 -2.53751380608061 -1.18753230073007
 1 -2.66802549324932 -1.04694435813581  2.03134037263726
 1 -2.26246588458846  1.88182667126713  1.35321968846885
 1 -1.99894361766177  1.20909639863986  3.54723493689369
 1 -3.75741052725272  2.38694815141514  3.74640920842084
 1 -3.58950993219322  0.30335470317032  3.65448933343334
 1 -1.97474000090009 -1.53298921932193 -0.32379736573657
 1 -2.17467166936694  0.08244033533353 -0.67670277187719
 1 -0.11227832183218  0.74177210071007  0.88750100200020
 1 -0.19648560226023 -0.88655163056306  1.42409528542854
 1 -4.89370153785379  6.55175035013501  0.44761654385439
 1 -6.37731240154015  6.74479427822782  1.70655534473447
 1 -5.06431966076608  5.69580475187519  2.05932961166117
 1 -9.71737923682368  5.66901983808381  0.51113895839584
 1 -9.11176181658166  8.03526211571157  0.24419501280128
 1 -7.36004104070407  7.68045861506151 -0.16049051965197
 1 -12.11671708450845  3.55694299959996 -1.73367966636664
 1 -13.17996320982098  1.83966960506051 -1.91724524822482
 1 -12.43748070947095  2.77246033143314 -0.01353285128513
 1 -12.42854538263826 -1.98711110931093 -1.12623283118312
 1 -13.20916692029203 -0.36325013801380 -1.41635899289929
 1 -13.52224269046905 -1.39662090129013 -3.59922291999200
 1 -12.20218039203920 -0.26597532343234 -3.71087866286629
 1 -11.54653800140014 -1.79015195919592 -3.56447556305631
 1 -8.74652554845485 -4.56658950725072 -2.05280286168617
 1 -7.89650335133513 -5.69289939813981 -0.92844707280728
 1 -9.46899906570657 -5.08580536753675 -0.34189244544454
 1 -3.40983111511151 -3.47410899539954 -0.21126777977798
 1 -1.49262035203520 -4.43896227352735  3.46855354235423
 1 -2.78160334773477 -5.39152979537954  3.67714493659366
 1 -1.50662208870887 -6.17288146524652  2.81074777767777
 1  2.45480015111511 -1.70427011691169 -1.32747682398240
 1  2.58871057125713 -0.05495257685769 -2.06525854565457
 1  4.28126735103510 -0.83238124432443  0.55767814401440
 1  3.98708964526453  1.21293238953895 -2.89477281958196
 1  5.36461976037604  2.21634602480248 -1.79533388798880
 1  5.80102542534253  0.94061439163916 -2.97906920622062
 1  6.55318834213421  1.52825905360536  0.06259375707571
 1  6.36921026902690  0.02392914401440  0.71926293339334
 1  7.04019776187619 -0.95892696439644 -1.44940906960696
 1  7.62670420142014  0.41839871637164 -1.94008415531553
 1  9.06239233643364  0.82985560206021  0.13765772827283
 1  8.58059588238824 -1.04062241764176  0.35465008360836
 1  10.19737144864486  0.10720548684869 -1.94101793239324
 1  9.19345584198420 -2.08619566386639 -1.95806076727673
 1  11.10537362206221 -2.21175768836884 -2.32586877287729
 1  10.28737621122112 -2.82786440904090 -0.68379046974697
 1  11.17744250645064  0.54989939743974  0.15515747914791
 1  11.13036344604460 -0.87272961106111  0.76261373437344
 1  12.65645138083808 -1.76487334873487 -1.02164049894989
 1  12.79190809680968  0.06122560156016 -1.77854621842184
 1  13.62800430363036  0.81867512301230  0.40188684918492
 1  14.01127721802180 -0.56375881318132  1.09454462416242
 1  15.36595898799880  0.44537439783978 -1.48352801230123
 1  15.50935293629363 -2.39737646354635  0.05896829922992
 1  14.92553008480848 -1.88549674327433 -1.61719944034403
 1  16.37114517311731 -1.76525045364536 -1.18917102590259
 1  16.17000220992099  1.35530460316032  0.86096951795180
 1  16.40157185918592 -0.17007340304030  1.38940187188719
 1  18.28666785868587 -0.65252221602160 -0.41338734633463
 1  17.87285736693669  1.00437169566957 -1.03477696159616
 1  18.20684936773677  2.19580147974797  1.32137723862386
 1  18.97497377477747  0.64262787408741  1.94353070467047
 1  20.57896796349635  0.15869230503050  0.18241599199920
 1  20.26581341464146  3.15129411431143 -1.07626789628963
 1  21.48932504640464  1.80959683758376 -1.47286854085409
 1  19.83916474967496  1.40402180448045 -1.70149057235724
 1  21.05326534183418  1.46379568336834  2.38374781638164
 1  22.37698233873387  1.95917444864486  1.31251551775177
 1  20.90023255585559  3.03536721292129  1.55701163236324

