%nproc=4
%Mem=2GB
# td=(NStates=1) CAM-B3LYP/6-31G(d,p) 

TD

0 1
12 -7.17464913421342  0.55019326002600  0.16744479307931
 6 -4.91338021912191 -2.00371248254825  0.53986962186219
 6 -4.79103841014101  2.77392171947195  1.13446690389039
 6 -9.33176776557656  3.09834223362336 -0.47307864086409
 6 -9.53976500410041 -1.73884405940594 -0.72206032103210
 7 -5.14783756535654  0.33462472297230  0.77751527192719
 6 -4.39699730503050 -0.82299291969197  0.85446734953495
 6 -2.89879084028403 -0.46356162826283  1.16173161436144
 6 -3.01473176237624  1.01306243874387  1.61391419781978
 6 -4.36891497819782  1.52471285168517  1.12825908710871
 6 -2.77898568956896  1.26546303360336  3.20864439053905
 6 -1.89612389328933 -0.64247825792579  0.01829115491549
 6 -0.49037729172917 -0.38038627002700  0.51030961386139
 6  0.48155753415342 -0.61021445354535 -0.72453410521052
 8  0.13073362306231 -1.06058746254625 -1.78624790509051
 8  1.78508553355336 -0.47478238503850 -0.29787400750075
 7 -7.10713832233223  2.61007241454145  0.39160431723172
 6 -6.04619175017502  3.32772372627263  0.71925990999100
 6 -6.37150514021402  4.71795242564256  0.75345310981098
 6 -7.62381297669767  4.79442932963296  0.37256416341634
 6 -8.17722827602760  3.43277356865687  0.08971931113111
 6 -5.44793057425743  5.86654774607461  1.27511403660366
 6 -8.49490870327033  5.95177024502450  0.26500652255225
 6 -8.11065026282628  7.23591967626763  0.12616835453545
 7 -9.18190322602260  0.64290076837684 -0.52413411871187
 6 -9.87312897189719  1.82624330693069 -0.70144526872687
 6 -11.18715345824583  1.49252024242424 -1.05762051165116
 6 -11.32592111281128  0.11074495179518 -1.19100836703670
 6 -9.94459434313431 -0.42892138023802 -0.79885918881888
 6 -12.18625686778678  2.50686296719672 -1.43033356425643
 6 -12.42468251395140 -0.68822988518852 -1.70294547174717
 6 -12.35533186518652 -0.99749363456346 -3.26120422582258
 7 -7.21623787588759 -1.39459882148215 -0.00327344604460
 6 -8.27831305360536 -2.23661960146015 -0.42243004890489
 6 -7.92210987848785 -3.59000318321832 -0.43933236223622
 6 -6.64441996399640 -3.64593890939094  0.02301980988099
 6 -6.21326610481048 -2.28854500900090  0.25098672007201
 6 -8.80962130683068 -4.86718953785379 -0.83078262526253
 6 -5.42405894359436 -4.42292827812781  0.20216871677168
 8 -5.21953331513151 -5.59890254385439  0.09512554735474
 6 -4.23260667066707 -3.42394532863286  0.49058995099510
 6 -3.56664102830283 -3.74249033363336  1.83833501320132
 8 -3.83164681928193 -3.19219245204520  2.92098581388139
 8 -2.72162351025103 -4.78399655215522  1.78309639763976
 6 -2.25517815631563 -5.34197466676668  2.97428876587659
 6  2.80261403800380 -0.69462872057206 -1.26687206210621
 6  4.06797011941194 -0.47815166456646 -0.58422095079508
 6  5.11066467386739  0.43553687818782 -0.92407230743074
 6  4.93654107070707  1.33305784208421 -2.13386047714771
 6  6.39987644524452  0.45183399029903 -0.12592927912791
 6  7.54469220812081  0.03389150725073 -0.93222289098910
 6  8.92939202160216  0.06738700520052 -0.13733632783278
 6  10.13146403940394 -0.31160825912591 -0.94506090049005
 6  10.21409859605961 -1.75478481338134 -1.37367902940294
 6  11.47143826092609 -0.05349624022402 -0.16936673797380
 6  12.82378954795479 -0.22692920882088 -0.78290883068307
 6  14.02942863066307  0.08490172697270  0.16802401540154
 6  15.39172451645165 -0.15978859055906 -0.55153820412041
 6  15.78758286048605 -1.61298408420842 -0.89283656345635
 6  16.41512476647664  0.51992637873787  0.30362954765477
 6  17.82714841914192  0.56969509530953 -0.24125240514051
 6  18.83435883538354  1.15421726852685  0.83923628532853
 6  20.29985766556656  1.12038778337834  0.39604920852085
 6  20.54631486038604  1.76170181818182 -0.98398421982198
 6  21.24182205630563  1.83136750615062  1.40341704330433
 1 -4.01554181268127  3.50905928762876  1.42148666966697
 1 -10.07141089278928  3.88560614451445 -0.62483678627863
 1 -10.19736899869987 -2.65631568626863 -0.90262380988099
 1 -2.39417810851085 -1.04889455315532  1.89195643424342
 1 -2.23741337933793  1.54412290089009  1.06874124062406
 1 -1.93276700000000  0.87901339033903  3.53865407880788
 1 -2.73096788298830  2.34396385298530  3.50321488898890
 1 -3.62094307550755  0.81672604030403  3.72505639013901
 1 -2.10217274417442 -1.60662658305831 -0.31665665166517
 1 -2.04387859005901  0.06237832913291 -0.78781388298830
 1 -0.19605669966997  0.66271419491949  0.98090034193419
 1 -0.04174012771277 -1.02737571297130  1.29759263516352
 1 -4.71158332603260  6.25434060916092  0.48783056525653
 1 -6.23741841214121  6.71835163396340  1.73366805600560
 1 -4.79449267806781  5.44767993939394  1.99963364206421
 1 -9.67565506440644  5.96807974407441  0.33075091959196
 1 -8.89382002240224  7.98310690019002 -0.00413982068207
 1 -6.97616265286529  7.44250481968197  0.28005353475348
 1 -12.09588500130013  2.72031933723372 -2.62825912431243
 1 -13.23618883238324  1.97763340144014 -1.30125364906491
 1 -12.06018297969797  3.45747883328333 -0.88488998699870
 1 -12.43918644674467 -1.78126052425243 -1.16336654455446
 1 -13.50300630423042 -0.21503531653165 -1.59736709370937
 1 -13.36950741694169 -1.57717895709571 -3.58939193689369
 1 -12.37196737073707 -0.09632835873587 -3.75824339933993
 1 -11.39685303290329 -1.60938388238824 -3.48643775927593
 1 -9.29055995189519 -4.64399724802480 -1.60999858125813
 1 -8.27976167716772 -5.79686979517952 -0.91602583068307
 1 -9.75575774157416 -5.09162594959496 -0.31095935213521
 1 -3.61260139213921 -3.58395998049805 -0.44072072507251
 1 -1.86654774477448 -4.35383376067607  3.55447213421342
 1 -3.01361654905491 -5.93688433083308  3.56520374247425
 1 -1.33075450195020 -5.87378155525553  2.80959766266627
 1  2.74909958105811 -1.68401809170917 -1.78450252655266
 1  2.50373207340734  0.14501742014201 -2.08409042884288
 1  4.28742796709671 -1.07071507770777  0.40662303850385
 1  3.82468340464046  1.23823491979198 -2.49473281558156
 1  5.21633493189319  2.32319670987099 -2.04058841344134
 1  5.36861218401840  0.95098542874287 -2.94236553585359
 1  6.51588461176118  1.54896112381238  0.25607310501050
 1  6.02841618961896 -0.14996824572457  0.80141114821482
 1  7.54333807590759 -0.98214928662866 -1.16333046174617
 1  7.69325085608561  0.71744862136214 -1.79093924082408
 1  9.17058315551555  1.06300891739174  0.16810077257726
 1  8.88753657645765 -0.67980633603360  0.89216383498350
 1  10.17122883438344  0.44527929422942 -1.76912074267427
 1  9.39408590499050 -1.82512955725572 -1.98208316951695
 1  11.06831991669167 -1.98274478707871 -1.88049423542354
 1  9.93365083868387 -2.38867048964896 -0.60330242094209
 1  11.45359012121212  1.06845125262526  0.36611857525753
 1  11.44475488518852 -0.68101043914391  0.76537401040104
 1  13.03244898059806 -1.37915477687769 -1.02772110701070
 1  12.98635754175418  0.53190266926693 -1.66914527832783
 1  13.94929643284329  1.05832908840884  0.72658931943194
 1  14.05805189548955 -0.65986842414241  0.96377154685469
 1  15.39535192729273  0.44800466086609 -1.38617827732773
 1  16.15779778077808 -2.22134886078608  0.09584198659866
 1  14.88007553935394 -2.32764095769577 -1.25720344074407
 1  16.68756681528153 -1.66610053865387 -1.58692080088009
 1  15.87098230793079  1.47911698439844  0.33116653765377
 1  16.44911661366137  0.01170477477748  1.36364929662966
 1  18.19031822372237 -0.42196916071607 -0.61652766036604
 1  17.86601668286829  1.31029228772877 -1.17771125502550
 1  18.40175885868587  2.20294219381938  1.11429653055306
 1  18.75576185358536  0.50039365066507  1.68902525412541
 1  20.91974204090409  0.09265570137014  0.20826857725773
 1  20.23588042134213  2.73401238613861 -0.89864013351335
 1  21.52626874077408  1.90324620252025 -1.11469272327233
 1  20.15500633383338  1.33859526182618 -1.96422684598460
 1  21.25749576487649  1.37786709050905  2.38613805540554
 1  22.31485612611261  1.86021455265527  1.20349461566157
 1  20.99070160276028  2.78686236243624  1.95255118631863

