%nproc=4
%Mem=2GB
# td=(NStates=1) CAM-B3LYP/6-31G(d,p) 

TD

0 1
12 -7.07464913421342  0.55390363106311  0.09168721732173
 6 -4.90488937003700 -1.87944005530553  0.47062269716972
 6 -4.73704301060106  2.84629895719572  1.23162661986199
 6 -9.34878946774677  3.06346874627463 -0.24964629762976
 6 -9.50242126972697 -1.74968514351435 -0.81189930493049
 7 -5.09443222482248  0.42640390089009  0.68805632603260
 6 -4.32462006730673 -0.70187080748075  0.66577848064806
 6 -2.92999396059606 -0.44853012511251  1.03859930113011
 6 -2.95109539873987  0.98478961146115  1.55019782618262
 6 -4.25465355205521  1.49479986038604  0.99762602380238
 6 -2.96002379337934  1.16460294759476  3.16663018911891
 6 -1.88306258715872 -0.60037404750475 -0.09083975817582
 6 -0.44355260926093 -0.42735096649665  0.46856543944394
 6  0.53963334173417 -0.71544497659766 -0.58906055785579
 8  0.28292884258426 -1.07685908970897 -1.75094437473747
 8  1.82910993599360 -0.61564647144714 -0.16901112121212
 7 -7.16083369186919  2.60168157545755  0.27068222502250
 6 -5.97431456245625  3.29734068796880  0.85294327832783
 6 -6.35252324202420  4.67665829622962  0.89753751825183
 6 -7.71892248764876  4.80662054875488  0.41495840284028
 6 -8.12023257645765  3.43592388368837  0.14907524672467
 6 -5.51842762396240  5.85592668396840  1.33464999019902
 6 -8.54577378977898  6.00358542654265  0.32439246114611
 6 -8.22462165996600  7.25818190249025 -0.09350361266127
 7 -9.14088912461246  0.56122260056006 -0.42990469576958
 6 -9.90178183718372  1.76537722032203 -0.56952207640764
 6 -11.22309705260526  1.47090808120812 -0.99315406500650
 6 -11.30263878457846  0.22778665596560 -1.22891215741574
 6 -9.93933381708171 -0.40380886898690 -0.88898820172017
 6 -12.25851409350935  2.53966624752475 -1.26846737763776
 6 -12.48661870757076 -0.68122918511851 -1.62842802000200
 6 -12.52362869486949 -1.03272715791579 -3.14632273767377
 7 -7.35963221532153 -1.44958432003200  0.05769265056506
 6 -8.26834205650565 -2.31335727522752 -0.47073487938794
 6 -7.90288795629563 -3.66013019591959 -0.45191362036204
 6 -6.52412793479348 -3.53760807630763 -0.08275076717672
 6 -6.22954773297330 -2.21437759225923  0.22729435083508
 6 -8.72303264796480 -4.78567138603860 -0.92849239623962
 6 -5.25665220292029 -4.28398438373837  0.08792729262926
 8 -5.15827718951895 -5.50385303890389  0.03645968076808
 6 -4.18793220322032 -3.25675860996100  0.55248614061406
 6 -3.66416078027803 -3.73923000760076  1.82801398109811
 8 -3.92438609320932 -3.27856108890889  2.92528624392439
 8 -2.68316966486649 -4.66270442294229  1.65120320832083
 6 -2.11347398589859 -5.09114958425843  2.97615895289529
 6  2.76490026662666 -0.62773203090309 -1.20389576447645
 6  4.13427675007501 -0.41434528392839 -0.55463799249925
 6  5.08851245864586  0.31519484398440 -0.99298919911991
 6  4.98004542114211  1.03847838413841 -2.28044513561356
 6  6.39948640624062  0.40759956685669 -0.11914860106011
 6  7.62172991189119 -0.05826770867087 -0.98867853655366
 6  8.94377345974597  0.00024029052905 -0.16804939913991
 6  10.11983287628763 -0.48028512681268 -0.87291368576858
 6  10.06790397659766 -1.94712404730473 -1.12101376287629
 6  11.37546866396640 -0.29196008660866  0.09003920262026
 6  12.76678384738474 -0.47710422632263 -0.65659619941994
 6  14.05697138493849 -0.10527729092909  0.23440065306531
 6  15.35663100710071 -0.16450906260626 -0.56982003230323
 6  15.75037914011401 -1.62849563536354 -0.84242152195220
 6  16.44398765276528  0.41822620872087  0.35477466216622
 6  17.84952065636564  0.59005713151315 -0.16583486338634
 6  18.76095149464946  1.29728157495750  0.71523388508851
 6  20.27003468326833  1.43060880548055  0.23610321392139
 6  20.56031626052605  2.15635128312831 -1.11636745814581
 6  21.08708658275828  1.89028339773977  1.39605630723072
 1 -3.88104836333633  3.52363074477448  1.62114663566357
 1 -10.14740849254926  3.87220480438044 -0.32424672727273
 1 -10.41095035683568 -2.23440349504950 -1.11496504400440
 1 -2.49081777247725 -1.01472113581358  2.00860809940994
 1 -1.94348398639864  1.48331682028203  1.08198256475648
 1 -1.85439916321632  0.79023451245124  3.30068028142814
 1 -3.14054884108411  2.11594105070507  3.62253682118212
 1 -3.65120610181018  0.36065043274327  3.39038292279228
 1 -1.85308783568357 -1.68576449684968 -0.37009199519952
 1 -2.05286948914891 -0.08237614631463 -1.04606970857086
 1 -0.32687978197820  0.37614553805381  1.11538379027903
 1 -0.04136008970897 -1.25100807620762  1.16230910681068
 1 -4.96306847454745  6.19865504060406  0.49253103530353
 1 -6.12190686098610  6.68024782358236  1.88229291849185
 1 -4.58025125392539  5.64522969436944  2.07032071077108
 1 -9.55824332323232  5.61534447054705  0.51887973247325
 1 -8.95919656005601  8.15820440994099 -0.35167457415742
 1 -7.18064310091009  7.40984155335534 -0.35311978257826
 1 -12.01950736353635  2.95468277357736 -2.33561986038604
 1 -13.26091130463046  2.06701233933393 -1.19325284898490
 1 -12.19401636303630  3.62910599599960 -0.68306980498050
 1 -12.48490101820182 -1.52042444064406 -0.99083929182918
 1 -13.47128313191319  0.07720390739074 -1.39572692969297
 1 -13.55234570077008 -1.42606384558456 -3.57464046174617
 1 -12.35933610761076  0.05822709680968 -3.51860943594359
 1 -11.67094044164416 -1.82325526952695 -3.47881699719972
 1 -8.86355725162516 -4.78131097939794 -2.01366894829483
 1 -8.08006170717072 -5.53904401260126 -0.90031425952595
 1 -9.64292645844584 -4.79337612461246 -0.37255551175117
 1 -3.46321645364536 -3.53318490299030 -0.22521917491749
 1 -1.66032712271227 -4.08347672497250  3.47202388938894
 1 -3.07525271267127 -5.62590323272327  3.46454367646765
 1 -1.43102452895290 -5.91037521462146  2.71961866476648
 1  2.63257792889289 -1.69911960186019 -1.63738781508151
 1  2.61387308750875  0.05149806820682 -2.05099711951195
 1  4.38061728602860 -1.17429543574357  0.30150252645265
 1  3.84303523982398  1.17140823712371 -2.58161150345034
 1  5.26996029442944  2.18398278847885 -2.18644299889989
 1  5.43806912971297  0.51166149634963 -3.23549484878488
 1  6.64431745504550  1.54725095279528  0.11522902060206
 1  6.14358770677068 -0.09348259715972  0.76875788288829
 1  7.39366310841084 -1.05328640034003 -1.24992912161216
 1  7.44595612661266  0.56479335583558 -1.86156630353035
 1  9.21679777697770  0.97186980348035  0.13813777627763
 1  8.80100792359236 -0.76374472987299  0.61945656425643
 1  10.36679839133913  0.11567633393339 -1.83448727932793
 1  9.08596509290929 -2.18011505580558 -1.70590555175518
 1  10.92770585528553 -2.34858137073707 -1.56130231623162
 1  10.09648712231223 -2.56110773337334 -0.19458154885489
 1  11.45872063426343  0.86975138263826  0.35023698709871
 1  11.34391480118012 -0.73278561666167  1.09068654165417
 1  12.91502723842384 -1.64392125352535 -1.09798813371337
 1  12.71771067706771  0.33665314431443 -1.43979234303430
 1  13.95394689788979  0.98185144064406  0.59122578307831
 1  14.12393848414841 -0.65683812111211  1.23280845054505
 1  15.41020341244124  0.30420028042804 -1.52870252975297
 1  15.75981798279828 -2.14543126902690  0.10727312971297
 1  15.05240277207721 -2.10332852645265 -1.46225394579458
 1  16.71851991059106 -1.58332226082608 -1.30115222402240
 1  16.19641485118512  1.46829590229023  0.54834825582558
 1  16.44863656565657 -0.16017241294129  1.25794872657266
 1  18.46496568846885 -0.31328829262926 -0.39597560516052
 1  17.72647272847285  1.13919517801780 -1.16929041294129
 1  18.45183386618662  2.39737163676368  1.21516661756176
 1  18.68110438783878  0.79728333963396  1.80677702930293
 1  20.62627269396939  0.35991242704270  0.21100885128513
 1  20.44061089438944  3.28536752165217 -0.92088235773577
 1  21.61360747464747  2.10736661456146 -1.51114236823682
 1  19.86324715791579  1.75413681598160 -1.94634505780578
 1  20.76452646794679  1.52847215101510  2.51481092269227
 1  22.13141778227823  1.84968349954996  1.26578084428443
 1  20.98706123872388  2.90364404060406  1.53643957515752

