%nproc=4
%Mem=2GB
# td=(NStates=1) CAM-B3LYP/6-31G(d,p) 

TD

0 1
12 -7.22147381668167  0.56687492819282  0.11206925552555
 6 -4.97743662476248 -1.99993210451045  0.48993462836284
 6 -4.79360866716672  2.77680200750075  1.11733519071907
 6 -9.29853444224422  3.18138053745375 -0.42002333533353
 6 -9.63156418401840 -1.70105028002800 -0.93954206920692
 7 -5.15682846444644  0.39498075857586  0.79712723312331
 6 -4.38482608790879 -0.78095871627163  0.90988289108911
 6 -2.96540750195019 -0.48023329542954  1.28978441964196
 6 -3.01326161536154  1.02158329082908  1.61038384478448
 6 -4.47969605630563  1.45992637303730  1.27547380858086
 6 -2.98988677967797  1.19356584388439  3.27629115521552
 6 -1.87633191409141 -0.72383639373937  0.16408573437344
 6 -0.42186044004400 -0.64610284168417  0.59270785368537
 6  0.53073245164516 -0.75030846294629 -0.54731638343834
 8  0.27929847954796 -1.22645404920492 -1.64434371467147
 8  1.71946897189719 -0.55524043084308 -0.17997221732173
 7 -7.11788939743974  2.54255566286629  0.35339049584959
 6 -6.00034716571657  3.35127608150815  0.73015099909991
 6 -6.37624561426143  4.75905653605361  0.90937870237024
 6 -7.64736533193319  4.83946383308331  0.42829973697370
 6 -8.09156971017102  3.41197148844884  0.12858319751975
 6 -5.46948272947295  5.87989908120812  1.26790331553155
 6 -8.42684189658966  6.11771683968397  0.24887490939094
 6 -7.99037823562356  7.30484656895690  0.06978271597160
 7 -9.06783181888189  0.75378185648565 -0.59298100340034
 6 -9.82996465546555  1.85972665526553 -0.70055517971797
 6 -11.16595133803380  1.52043303370337 -1.15611036063606
 6 -11.13307182788279  0.08685256255626 -1.26617588378838
 6 -9.88682856655666 -0.36835532363236 -0.96137544044404
 6 -12.19413765586559  2.54218649954995 -1.58656918781878
 6 -12.37432747844784 -0.67905896809681 -1.64387956515652
 6 -12.34384071607161 -1.27238112331233 -3.06994509990999
 7 -7.26877312941294 -1.43424278587859 -0.05748886758676
 6 -8.32508773107311 -2.20276621612161 -0.49621742764276
 6 -7.91747941544154 -3.54822900580058 -0.51250967996800
 6 -6.53911943394339 -3.63555787128713 -0.13488598069807
 6 -6.16855163336334 -2.27843399789979  0.06040766216622
 6 -8.71564190889089 -4.81220403930393 -0.91415096209621
 6 -5.35782231993199 -4.41653763906391  0.17225572547255
 8 -5.27215857765777 -5.63463611721172  0.10233626842684
 6 -4.15851926192619 -3.32667560166017  0.60637152915292
 6 -3.61313567776778 -3.77810389498950  1.93951513121312
 8 -3.86074972957296 -3.21129436223622  2.96701041634163
 8 -2.83022437033703 -4.75513366586659  1.78178626662666
 6 -2.34831747024702 -5.26712718201820  2.99943128012801
 6  2.77607138373837 -0.64627388508851 -1.27628300320032
 6  4.07096041844184 -0.34185803520352 -0.54256678537854
 6  5.03159676707671  0.49469279377938 -0.90456035623562
 6  5.02818023462346  1.27899243554355 -2.11631872297230
 6  6.32182864046405  0.51206001290129 -0.23407009320932
 6  7.66159389828983 -0.11763364526453 -1.02783245194519
 6  8.93416249864987 -0.06747648114811 -0.07942053625363
 6  10.17680857385739 -0.45681277957796 -0.85332172657266
 6  10.14946213241324 -1.95729506440644 -1.28983064456446
 6  11.47755887298730 -0.17916880748075  0.02193239193919
 6  12.74510167916792 -0.35009152505251 -0.71885242504250
 6  13.92716840464046  0.13003624042404  0.07874508750875
 6  15.33620896489649  0.05705309360936 -0.54792784308431
 6  15.64726882908291 -1.40781356715672 -1.07980526032603
 6  16.50499375337533  0.57764215031503  0.37885707040704
 6  17.73666937123712  0.79117724352435 -0.29172745264526
 6  18.88344374387439  1.17459930673067  0.73237559925993
 6  20.29511719151915  1.19467521212121  0.24785438903890
 6  20.56632686158616  1.88212386038604 -0.99899572097210
 6  21.17616549064907  1.76352072147215  1.33451015261526
 1 -4.07551781028103  3.59442782448245  1.44657917891789
 1 -10.10914466616662  4.04716230013001 -0.24929923252325
 1 -10.37687694949495 -2.38497855255526 -1.09297284478448
 1 -2.59633832453245 -1.16671633533353  2.34754199279928
 1 -2.40735037303730  1.61993048164816  1.37533189968997
 1 -1.87814153745374  0.88344383338334  3.51367158055806
 1 -3.31327611381138  2.33471292789279  3.59740430793079
 1 -3.73194417561756  0.66895126282628  3.78132201670167
 1 -1.99916244314431 -1.76407232763276 -0.31708669466947
 1 -1.85396959915992 -0.22048995769577 -0.82812791439144
 1 -0.19445653965397  0.26426434993499  1.24774702660266
 1 -0.15979193289329 -1.63236621202120  1.20196307220722
 1 -4.87454962266227  6.17176235133513  0.24886666886689
 1 -5.92238690899090  6.52609240804080  1.77651234043404
 1 -4.68316154495449  5.50079525092509  2.04916859555956
 1 -9.53241073997400  5.81849478557856  0.41906975147515
 1 -8.70772141254125  8.17384597409741  0.21238183148315
 1 -6.99005404200420  7.62738330753075  0.11885741514151
 1 -12.09542495529553  3.04755206050605 -2.63310960936094
 1 -13.34471968546855  2.02914855295530 -1.44371789548955
 1 -12.30185714711471  3.35640872627263 -0.76426792479248
 1 -12.54701722982298 -1.55807820602060 -0.98150835873587
 1 -13.08606461006101 -0.00193400640064 -1.66436379337934
 1 -13.19763022922292 -2.04287552675267 -3.38404140184018
 1 -12.35863603760376 -0.32896162206221 -3.64247182218222
 1 -11.29469281688169 -1.63079602360236 -3.37084620012001
 1 -8.97383827972797 -4.71202405070507 -2.08965654705471
 1 -8.12552625362536 -5.54549465766577 -0.69856408450845
 1 -9.68725089088909 -4.74061084808481 -0.32321057725773
 1 -3.31260139213921 -3.50612219671967 -0.18959561256126
 1 -1.93701479147915 -4.58664704200420  3.58228491549155
 1 -3.07124231163116 -5.98358900130013  3.55162238433843
 1 -1.63411483798380 -6.00725490259026  2.53863056595660
 1  2.76839151025103 -1.59362905280528 -1.67149122542254
 1  2.60105180538054 -0.04598167976798 -2.17025904570457
 1  4.12779200350035 -1.11230923712371  0.25809818601860
 1  4.21115205150515  1.37913901020102 -2.86525986828683
 1  5.32288558695870  2.35467985818582 -2.06866122072207
 1  5.98791411421142  0.81132146234623 -2.71569286858686
 1  6.69430245354535  1.62428865656566 -0.08544104640464
 1  6.19282263026303  0.07764451555156  0.86357736483648
 1  7.46754049614962 -1.26740781248125 -1.32319644834483
 1  7.81421295229523  0.46400327682768 -1.97319746664666
 1  9.04085018221822  1.12021463796380  0.02115607810781
 1  8.52824064686469 -0.54067242264226  0.88606322492249
 1  10.35159687118712 -0.06736196989699 -1.80575440604060
 1  9.25489198559856 -2.09947699199920 -1.98590355155516
 1  11.10454353905391 -2.30711722432243 -1.87942412841284
 1  9.89484695829583 -2.66872849544954 -0.27933002370237
 1  11.39064382658266  0.86450085758576  0.24914687808781
 1  11.23540395009501 -0.73632597069707  0.80454792779278
 1  12.98598433413341 -1.43145000640064 -0.77374570947095
 1  12.78935784178418  0.27865734473447 -1.57289565336534
 1  13.76089759295930  1.13188644414441  0.42969963046305
 1  14.01918800910091 -0.56864930223022  0.90694586428643
 1  15.39294168626863  0.76870673107311 -1.27840750025002
 1  15.70436243724373 -2.21777850375037 -0.42308990659066
 1  14.92084961676168 -1.74144233783378 -1.69553727412741
 1  16.58229628822883 -1.38763269186919 -1.54618672747275
 1  16.02603781348135  1.51400047274727  0.94555797679768
 1  16.47175887788779 -0.08756515221522  1.00070300200020
 1  18.30143933583359 -0.03308027182718 -0.61999800740074
 1  17.63481356255626  1.57372863136314 -0.99283276717672
 1  18.81986066886688  2.20712261186119  0.87574267516752
 1  18.90769704710471  0.71542515381538  1.78855520712071
 1  20.45572563926392  0.17743417921792  0.08969672007201
 1  20.57660449374938  3.04950393529353 -0.78216848634863
 1  21.52525863976398  1.71940781868187 -1.48469972397240
 1  19.87237807100710  1.58556995929593 -1.85753617691769
 1  21.11991200650065  1.05503480728073  2.28789823142314
 1  22.32210685118512  1.78612714391439  0.81235550175018
 1  20.88026055865587  2.61656533273327  1.53316924812481

