%nproc=4
%Mem=2GB
# td=(NStates=1) CAM-B3LYP/6-31G(d,p) 

TD

0 1
12 -7.19857152645265  0.60132837353735  0.20101815041504
 6 -4.78636751785178 -1.92526463776378  0.53533916881688
 6 -4.84517382368237  2.83401772907291  1.24009746694669
 6 -9.49542413121312  3.10069246864686 -0.31148248124812
 6 -9.56820784838484 -1.75930610561056 -0.81935005000500
 7 -5.09762254385439  0.44298555905591  0.75494301470147
 6 -4.32040964626463 -0.63789440984098  0.75791769456946
 6 -2.80843180438044 -0.47228250035003  1.24174961616162
 6 -2.98019830903090  1.06888802130213  1.76902970937094
 6 -4.44125221192119  1.48483886428643  1.20347660886089
 6 -2.94043183418342  1.08695518281828  3.23000652675268
 6 -1.97966224712471 -0.54692870297030  0.06380570637064
 6 -0.48404665866587 -0.30306853825383  0.45017360026003
 6  0.56303568196820 -0.70335376747675 -0.62096374817482
 8  0.20879142884288 -1.04420582438244 -1.70898017831783
 8  1.74042106710671 -0.42355726252625 -0.22404662476248
 7 -7.15226283478348  2.63001440874087  0.58146330313031
 6 -6.06213334433443  3.32211316521652  0.89431741574157
 6 -6.46196418611861  4.80064069446945  0.83272103660366
 6 -7.79534012941294  4.90665055175518  0.41291819881988
 6 -8.18529908310831  3.47651794309431  0.14388472767277
 6 -5.50273605480548  5.95567665896590  1.21679820502050
 6 -8.57068628102810  6.10027509550955  0.22823284518452
 6 -8.10082928072807  7.28934501880188 -0.12327658995900
 7 -9.07396243194319  0.68248472677268 -0.44741644694469
 6 -9.86434809380938  1.73758444104410 -0.63074819901990
 6 -11.23550829372937  1.47539853025303 -0.96253100270027
 6 -11.25767428812881  0.14439831713171 -1.17489675587559
 6 -9.95606549024902 -0.38863735183518 -0.82115141804180
 6 -12.29810805290529  2.50555283618362 -1.35205573647365
 6 -12.34663470917092 -0.68130919311931 -1.72270744794479
 6 -12.26763309530953 -0.85198908410841 -3.22658076347635
 7 -7.29366561866187 -1.42998235983598 -0.16617973667367
 6 -8.19842506480648 -2.34334027352735 -0.61476928282828
 6 -7.69671733923392 -3.64522870577058 -0.56739516851685
 6 -6.46474199619962 -3.59583389888989 -0.18213070517052
 6 -6.22715749394939 -2.22295845034503  0.14044566596660
 6 -8.54175452015201 -4.85442826172617 -1.06340588758876
 6 -5.27162370007001 -4.35203118841884  0.16275477537754
 8 -5.13644500630063 -5.53051570517052 -0.06938090329033
 6 -4.20566397639764 -3.31746468056806  0.60701159315932
 6 -3.67703206740674 -3.75362144674467  1.92882406210621
 8 -3.81796545114511 -3.11508474127413  2.93467718301830
 8 -2.96596794469447 -4.77949610211021  1.81464955295530
 6 -2.18483112161216 -5.29242971227123  3.00194153115312
 6  2.75547932453245 -0.58214747244724 -1.22638801370137
 6  4.10990431283128 -0.50157400680068 -0.52332486118612
 6  5.17906151355136  0.26020934543454 -0.97374727492749
 6  5.12608002460246  1.17058159445945 -2.22114920602060
 6  6.46007246484648  0.18347715461546 -0.09340602680268
 6  7.71075881478148 -0.36869875177518 -0.90211988068807
 6  8.95455453785379 -0.23865359885989 -0.12303489768977
 6  10.18189908290829 -0.69304640294029 -0.90434682908291
 6  10.24920210641064 -2.28488782368237 -1.18586024752475
 6  11.44966608370837 -0.35907679827983 -0.09864966626663
 6  12.84134130313031 -0.66806332223222 -0.68420896069607
 6  13.95312099989999 -0.15956271947195  0.16473368636864
 6  15.35787113111311 -0.17842045374537 -0.53323637393739
 6  15.79464356655666 -1.55633841964196 -1.04131141094109
 6  16.38217147114711  0.54285867196720  0.27386657135714
 6  17.78535423972397  0.71873999979998 -0.19967824772477
 6  18.73579897939794  1.51897374417442  0.73426578827883
 6  20.19827750755076  1.56656240084008  0.25874547814781
 6  20.31864209310931  2.21737738573857 -1.09639546094609
 6  21.13758163226323  2.15184955435544  1.38457515911591
 1 -4.04041429992999  3.45811419311931  1.68628314931493
 1 -10.24989874157416  3.85311289518952 -0.50594489708971
 1 -10.45686494829483 -2.39982003670367 -1.09193274077408
 1 -2.74401309200920 -1.18975863956396  1.90531777037704
 1 -2.08568820682068  1.69894838343834  1.17158152465247
 1 -1.88074179747975  1.02563805280528  3.81425163856386
 1 -3.22513729992999  2.18907836443644  3.61694626212621
 1 -3.63940492169217  0.35763013071307  3.66040992549255
 1 -2.02512503940394 -1.56468238863886 -0.41573655965597
 1 -2.13113731593159  0.29272136343634 -0.76866196779678
 1 -0.26148324232423  0.60769869336934  0.83648590049005
 1 -0.20650660436044 -1.00966394179418  1.38814169006901
 1 -4.68819098679868  6.20869604470447  0.50663244544454
 1 -5.91450612091209  6.90214001280128  1.48194288348835
 1 -4.85572880168017  5.54263943534353  2.22183586228623
 1 -9.67126462536254  5.75740867696770  0.18196604110411
 1 -8.64484512491249  8.21673026252625 -0.08490789748975
 1 -7.05843087968797  7.45232580178018 -0.47532200280028
 1 -12.21738715151515  2.91651895719572 -2.39861616001600
 1 -13.21877709120912  1.99619525762576 -1.53043656735674
 1 -12.50005696709671  3.12345543094309 -0.57183868186819
 1 -12.20531305940594 -1.67027942614261 -1.35423563146315
 1 -13.33286929052905 -0.23641745474547 -1.55553291029103
 1 -12.99878034423442 -1.56355759495950 -3.31336433413341
 1 -12.77664783878388 -0.05611433733373 -3.80107768276828
 1 -11.20990433803380 -1.06917986198620 -3.71415053055306
 1 -8.98383927982798 -4.81500434873487 -2.18279586098610
 1 -7.88552225322532 -5.73563367156716 -1.17009123722372
 1 -9.45671783758376 -5.10390717771777 -0.44922317851785
 1 -3.44776490849085 -3.38590017451745 -0.17481413441344
 1 -1.91596268626863 -4.39628800610061  3.53648033503350
 1 -2.92770795819582 -5.81893253565356  3.64228145024502
 1 -1.39915134163416 -5.79507368446845  2.39336603950395
 1  2.46949162026203 -1.67106679657966 -1.65393947024703
 1  2.68193989418942 -0.07779486108611 -2.12587460726073
 1  4.03719294359436 -0.99609761596160  0.51530390659066
 1  4.03180411671167  1.27959905620562 -2.58428177047705
 1  5.47166046444644  2.08034242444244 -1.91326568116812
 1  5.82678800160016  0.71689201940194 -2.94749604890489
 1  7.00139316261626  1.22715894359436 -0.07979048134814
 1  6.18988233623362 -0.20690393929393  0.83480448754875
 1  7.57009075117512 -1.27172824452445 -1.26628075677568
 1  7.69967149814982  0.26856373287329 -1.77664781168117
 1  9.07271336853685  0.72704532103210  0.38281224372437
 1  8.79061688448845 -0.88181653705370  0.72820743934393
 1  10.19214092559256 -0.24088932263226 -1.74781861246125
 1  9.28587508390839 -2.50099714401440 -1.90472543374337
 1  11.14423750845084 -2.64101061366137 -1.69131531753175
 1  9.87544501810181 -2.95668729132913 -0.17943003370337
 1  11.38781354355435  0.87325173267327  0.08098006140614
 1  11.25449585928593 -0.64722706080608  0.97548502150215
 1  12.76109184488449 -1.84602146354635 -0.62617095199520
 1  12.84429333533353 -0.33477399839984 -1.80271863566357
 1  13.80986248944895  0.79900315581558  0.39187584808481
 1  14.09526561686169 -0.69290172747275  1.00737590729073
 1  15.24423681578158  0.46665652605260 -1.39993965346535
 1  15.78015001600160 -2.27032375827583 -0.10442804040404
 1  15.06297382918292 -2.08881707530753 -1.41822954335434
 1  16.54670272887289 -1.73240716931693 -1.60853296209621
 1  15.99516472617262  1.45647472017202  0.68938235923592
 1  16.48347004900490 -0.23915031073107  1.17032996469647
 1  18.22985217711771 -0.28192515631563 -0.32195820342034
 1  17.73928400960096  1.11739299779978 -1.29177266116612
 1  18.36688537133713  2.52688458805881  0.98811391229123
 1  18.45065134253425  0.88301191249125  1.74244059565957
 1  20.56285635233523  0.25201163696370  0.07621537193719
 1  20.26965379867987  3.37053603850385 -1.19331960146015
 1  21.35740185408541  1.98303418131813 -1.46279753375338
 1  19.41218205140514  1.80863226552655 -1.80685110841084
 1  20.82011202650265  1.63133243704370  2.40372981458146
 1  22.24158879937994  1.88746727792779  1.26219048524853
 1  20.74584711731173  3.18851252745275  1.62530846204620

