%nproc=4
%Mem=2GB
# td=(NStates=1) CAM-B3LYP/6-31G(d,p) 

TD

0 1
12 -7.09866153545355  0.52516075677568  0.16177422602260
 6 -4.76985586668667 -1.96821893319332  0.45977161206121
 6 -4.87227653395340  2.83690801810181  1.13492694989499
 6 -9.51170575937594  3.11994439383938 -0.12567390039004
 6 -9.66599762736274 -1.84599477447745 -0.72531064606461
 7 -5.10018279987999  0.44746600710071  0.64954247464746
 6 -4.31303890919092 -0.78705932633263  0.75670757355736
 6 -2.90432139333933 -0.43162843494349  1.27547298849885
 6 -3.03178346754675  1.07296842934293  1.58991179757976
 6 -4.39688777547755  1.46325670607061  1.14266052725273
 6 -2.92515030603060  1.41762825012501  3.08029155525553
 6 -1.81684596549655 -0.67117112721272  0.20953027882788
 6 -0.33613186718672 -0.34705293669367  0.55711429432943
 6  0.58521790019002 -0.72990642274227 -0.49959161096110
 8  0.34430498019802 -0.95757716151615 -1.63880316061606
 8  1.91212823782378 -0.45964087088709 -0.08248246834683
 7 -7.19274688318832  2.64245565286529  0.38526368316832
 6 -6.10140727172717  3.33176413031303  0.75703368736874
 6 -6.47901589128913  4.74894552495249  0.82316008050805
 6 -7.74743533893389  4.82714260096010  0.42964987198720
 6 -8.26318687188719  3.50891118241824  0.17475781498150
 6 -5.43990977217722  5.81929302060206  1.24357088228823
 6 -8.61235044744475  6.03305837383738  0.19377939983998
 6 -8.20557975577558  7.20883696799680  0.03461919961996
 7 -9.22909794549455  0.69265574387439 -0.49096080138014
 6 -9.99711137013701  1.80289097169717 -0.47434255845585
 6 -11.31872661556156  1.49491048144814 -1.01042579217922
 6 -11.30023854455446  0.07185106240624 -1.23656292249225
 6 -10.00723060676068 -0.43021150925093 -0.83858316121612
 6 -12.41077932003200  2.50229251015102 -1.28721925282528
 6 -12.35525557125712 -0.69441050325033 -1.60239541674167
 6 -12.34395072707271 -1.11589547474747 -3.08539664506451
 7 -7.20361661376138 -1.48887824942494 -0.17588070677068
 6 -8.29751497379738 -2.26575251475148 -0.60297810371037
 6 -7.88293596109611 -3.72189637253725 -0.47812624162416
 6 -6.51193671567157 -3.53819813531353 -0.16927942004200
 6 -6.23227800600060 -2.22202835733573 -0.03638201680168
 6 -8.65607595229523 -4.81972479137914 -0.94364391139114
 6 -5.31859839753975 -4.40083606890689  0.02750125002500
 8 -5.32567392919292 -5.61136378997900  0.05792182698270
 6 -4.11263467346735 -3.30235316941694  0.39265015701570
 6 -3.57284164836484 -3.62849893449345  1.72522370207021
 8 -3.65038869346935 -2.96912014481448  2.77743145844584
 8 -2.72987433533353 -4.74561271377138  1.69074716271627
 6 -1.99637227572757 -5.06831730103010  2.97728906590659
 6  2.90706448304830 -0.63438269596960 -1.22126750165017
 6  4.22523584598460 -0.39839368876888 -0.37667019571957
 6  5.15833944134413  0.38251157565757 -1.01337123732373
 6  5.14005142174217  1.18615315161516 -2.24344143524352
 6  6.53522998059806  0.55873468036804 -0.20929761596160
 6  7.70091783068307 -0.15135701760176 -0.93422309100910
 6  8.89791887428743 -0.23683341684168 -0.14297689188919
 6  10.18199909290929 -0.64488158645865 -0.91276767116712
 6  10.04087127332733 -2.05477481238124 -1.38028969046905
 6  11.38589970707071 -0.41070196079608  0.09558975767577
 6  12.75648281728173 -0.54843135903590 -0.65831637143714
 6  13.91543723152315 -0.04210097329733  0.21801901490149
 6  15.29087443144314 -0.17756036773677 -0.56028907920792
 6  15.69721382358236 -1.54308709450945 -0.96936421622162
 6  16.38188144214421  0.48029241534153  0.39093827852785
 6  17.82627833213321  0.68221634743474 -0.25839411931193
 6  18.70874627412741  1.27242908970897  0.77120948264826
 6  20.19333701350135  1.31183692829283  0.28768837243724
 6  20.27609783868387  2.12872852085209 -0.93226904830483
 6  21.24722259635964  1.84496886628663  1.29541624322432
 1 -4.14472473097310  3.54533291499150  1.47884240524052
 1 -10.20454420612061  3.93698128202820 -0.43561786438644
 1 -10.50252951475147 -2.47269732443244 -1.02559610711071
 1 -2.77930662136214 -0.70843050675067  2.25815305390539
 1 -2.35812545054505  1.57811630023002  1.08209257575758
 1 -2.05624934823482  1.22978846784678  3.41305151855186
 1 -3.23030781698170  2.29293875047505  3.46455102260226
 1 -3.43601458265827  0.73923829152915  3.65397928242824
 1 -2.01921444834483 -1.67036295669567 -0.25765075107511
 1 -2.20348455065506 -0.05355326402640 -0.78823392499250
 1 -0.15104219821982  0.75308323182318  0.82215446734673
 1  0.03994804110411 -1.00778375377538  1.45836871277128
 1 -4.95526769446945  6.06697187228723  0.43318510071007
 1 -5.80405507580758  6.94822462126213  1.58639332853285
 1 -4.56976020482048  5.43308848024803  2.01449512821282
 1 -9.60972847174717  5.77476041214121  0.42972081658166
 1 -9.01006164656465  8.03855244474448 -0.03069247594759
 1 -7.22772780938094  7.44146471567157 -0.56068053865387
 1 -12.11598701150115  3.29101640694069 -2.10352665106511
 1 -13.44727994149415  2.05989162726273 -1.58614213791379
 1 -12.58108506990699  3.29936302170217 -0.29617111511151
 1 -12.24456698479848 -1.65747814601460 -0.99106931483148
 1 -13.30986699029903 -0.31386519951995 -1.50650800780078
 1 -13.30187065326533 -1.70312155135514 -3.21484448214822
 1 -12.19843001700170 -0.05282400830083 -3.66627420242024
 1 -11.48965231283128 -1.81502444644464 -3.33019213471347
 1 -8.86024692059206 -4.88924177247725 -2.08018559996000
 1 -7.93607730873087 -5.63148325652565 -0.65497972607261
 1 -9.55660782658266 -5.07970475747575 -0.50860911711171
 1 -3.43158329032903 -3.43352493699370 -0.41516816981698
 1 -1.83596468646865 -4.07257563486349  3.29684637163716
 1 -2.82145733313331 -5.59592023442344  3.65174239633963
 1 -1.06703813031303 -5.82006618371837  2.82541924482448
 1  2.82294696579658 -1.77900759065907 -1.51507558385839
 1  2.55232693289329 -0.00816789838984 -2.09456147594759
 1  4.33064228852885 -0.82377038323832  0.57768014421442
 1  4.15075601190119  1.22170326662666 -2.89360270257026
 1  5.26037933633363  2.10501489168917 -2.09926428102810
 1  5.68695401820182  0.64879520972097 -3.05893719301930
 1  6.75581860516052  1.62922915061506 -0.12126462876288
 1  6.26918026602660  0.18155490659066  0.66739774687469
 1  7.41371511361136 -1.03819489118912 -1.20852498119812
 1  8.02765429642964  0.17928480498050 -1.92847299419942
 1  9.16984308150815  0.60717333383338  0.24443840634063
 1  8.73224104690469 -0.68576693209321  0.78320293889389
 1  10.23906561806181  0.01059582588259 -1.73234706530653
 1  9.30426692309231 -2.23921096539654 -2.24936989818982
 1  11.03918700340034 -2.65212172477248 -1.69829601560156
 1  10.01809928352835 -2.63920554315431 -0.18332042274227
 1  11.36058082028203  0.68584299179918  0.33357532093209
 1  11.26810722042204 -1.08193053115312  1.09744721772177
 1  12.81108684438444 -1.66617347874787 -0.66237457235724
 1  12.80630953695370 -0.04808532953295 -1.61461982578258
 1  13.80938244144414  1.15671892739274  0.57012367286729
 1  13.73670976127613 -0.60204264156416  1.28145331503150
 1  15.14150654275427  0.50260012041204 -1.37842750225023
 1  15.53589559055906 -2.23729045494549 -0.21905950355035
 1  14.96431396319632 -2.02783097669767 -1.59861758215822
 1  16.73615167376738 -1.71248517711771 -1.46301841064106
 1  15.79117432713271  1.27600667336734  0.81244466546655
 1  16.51273297529753  0.04572817711771  1.48395132683268
 1  18.09050824272427 -0.47851481528153 -0.24952095969597
 1  17.86671675287529  1.22644390289029 -1.30633411731173
 1  18.27624630743074  2.27040894049405  1.02750785168517
 1  18.74354063146314  0.61135474677468  1.58646499809981
 1  20.55184525122512  0.24916135193519  0.04810256065607
 1  19.99410624392439  3.07887687258726 -0.52660292979298
 1  21.28204431833183  2.20861673957396 -1.36307756175618
 1  19.72805363856385  1.66797820012001 -1.83389381268127
 1  21.17449746504650  1.22374167796780  2.17070651225123
 1  22.11280592109211  1.92741127232723  1.02313657985799
 1  21.17150968356836  2.77004068026803  1.65532146334633

