%nproc=4
%Mem=2GB
# td=(NStates=1) CAM-B3LYP/6-31G(d,p) 

TD

0 1
12 -7.08106977627763  0.59542778347835  0.10672872147215
 6 -4.77676655775578 -1.92565467676768  0.57833346824682
 6 -4.87183648994900  2.83441776907691  1.31042449964996
 6 -9.50680526932693  3.08129052845285 -0.33329466246625
 6 -9.49387041464146 -1.80709088408841 -0.91664977997800
 7 -5.07442022362236  0.46316757725773  0.73233075347535
 6 -4.24652225752575 -0.73838445884588  0.83145504830483
 6 -2.86715767696770 -0.38424369646965  1.27354279547955
 6 -3.03160344954496  1.08650978347835  1.82853565996600
 6 -4.34986307300730  1.60693107350735  1.19885614681468
 6 -2.96282407340734  1.23762024932493  3.29057258335834
 6 -1.87862214311431 -0.43288729882988  0.05250457625763
 6 -0.48849710371037 -0.40295852725273  0.38432701560156
 6  0.54060343874387 -0.65447887998800 -0.65709736153615
 8  0.32840339003900 -0.95850725452545 -1.78751803210321
 8  1.76548357335734 -0.48839374617462 -0.19928414851485
 7 -7.18215582408241  2.56799820712071  0.45751090789079
 6 -6.16884401540154  3.39149010291029  0.93371135513551
 6 -6.49119710941094  4.74429505990599  0.82503026752675
 6 -7.75050564596460  4.84160404710471  0.37436434343434
 6 -8.16966751995199  3.48347863916392  0.16146648584858
 6 -5.64694047524752  5.82162325362536  1.33780030523052
 6 -8.59381859425943  5.97375244324432  0.22681270317032
 6 -8.39543874167417  7.29193527782778  0.06177191489149
 7 -9.08640367606761  0.54088056635664 -0.54178588388839
 6 -9.84166582558256  1.74193487608761 -0.57811293549355
 6 -11.16500124302430  1.37321831223122 -1.07906265586559
 6 -11.21736025672567  0.03019689698970 -1.26308557475748
 6 -9.89529941364136 -0.49454794289429 -0.88939824272427
 6 -12.25527376947695  2.41097337823782 -1.40284081498150
 6 -12.31211125682568 -0.83147420962096 -1.77782295949595
 6 -12.15428176017602 -1.05672955815582 -3.37624572997300
 7 -7.16581283338334 -1.33276263786379 -0.12203532223222
 6 -8.20946616891689 -2.20659659915992 -0.56357416331633
 6 -7.74750241774177 -3.52600678357836 -0.52046047504750
 6 -6.44357987998800 -3.56711102660266 -0.05420791289129
 6 -6.19201397959796 -2.20061621612161  0.20883250465046
 6 -8.46210655535553 -4.82060487938794 -1.04748429542954
 6 -5.29533607130713 -4.37545353065307  0.24179267916792
 8 -5.16660802260226 -5.59690234383438  0.25520155495550
 6 -4.08297170717072 -3.31519445354535  0.63068396039604
 6 -3.45610997519752 -3.61918800340034  1.89265044474447
 8 -3.66070972557256 -3.08791202400240  3.01396511181118
 8 -2.66034738263826 -4.71238939143914  1.71316940494049
 6 -2.16463910241024 -5.27384785408541  3.05673701070107
 6  2.69293306990699 -0.51194045174517 -1.30404577947795
 6  4.14338766116612 -0.44228807820782 -0.56976950565057
 6  5.03830743814381  0.42934625912591 -1.01024092429243
 6  4.95142255885589  1.38307284358436 -2.17999509060906
 6  6.31215767336734  0.49936874377438 -0.28980566676668
 6  7.61319905880588 -0.02883476537654 -1.11122079077908
 6  8.81954103650365  0.01335160166017 -0.19184177837784
 6  10.15069596259626 -0.48991608990899 -0.98521491589159
 6  10.07531471767177 -2.00873020792079 -1.28533019451945
 6  11.36786790389039 -0.21413230383038 -0.07983778507851
 6  12.68543571257126 -0.41800831673167 -0.77684822462246
 6  13.88718440624062 -0.10684744794479  0.08885609860986
 6  15.26858220222022 -0.35780839253925 -0.47462051235124
 6  15.56997109930993 -1.75756854265427 -0.80803808360836
 6  16.34191744574457  0.20129451555156  0.47260644534453
 6  17.76997270157016  0.49094722052205 -0.15952423232323
 6  18.87598299779978  1.09147099389939  0.76405876757676
 6  20.25755343514351  1.26590233483348  0.23231283488349
 6  20.34355458435843  2.19054470247025 -1.01237705910591
 6  21.14901277537754  1.71540590999100  1.30196689828983
 1 -4.26431669016902  3.78939732143214  1.73904842584258
 1 -10.10522427412741  3.97606519041904 -0.42239654225423
 1 -10.07877713951395 -2.59101915661566 -1.06115966346635
 1 -2.48449714041404 -1.02088175187519  2.15322256085609
 1 -2.22818245624562  1.60196868546855  1.25886025252525
 1 -2.07151087438744  0.80025551455146  3.69861007440744
 1 -2.99000378657866  2.35046450305030  3.53702827032703
 1 -3.85242622382238  0.70077444514451  3.74547843234323
 1 -2.03977650455046 -1.29209512991299 -0.70639562556256
 1 -2.17560176237624  0.48864095539554 -0.62745784738474
 1 -0.19228632263226  0.73443136663666  0.54606685858586
 1 -0.36769272297230 -1.22140511591159  1.17693056895690
 1 -4.87978014571457  6.18616379147915  0.70844262646265
 1 -6.38491316161616  6.57794759355935  1.73691838103810
 1 -5.18392162096210  5.45780095149515  2.18308198689869
 1 -9.63288078697870  5.76683962006201  0.53341118561856
 1 -9.15996663706371  8.06577516701670 -0.00641004770477
 1 -7.29976501310131  7.62718328752875 -0.12575704630463
 1 -12.06437184998500  2.97038434373437 -2.15559185758576
 1 -13.23223843734373  2.00927656575658 -1.40490401410141
 1 -12.56079304070407  3.21311439683968 -0.54917641564156
 1 -12.25826835493549 -1.67812021022102 -1.37122733063306
 1 -13.37796379998000 -0.62938675167517 -1.73875123212321
 1 -13.01041150735074 -1.81624286348635 -3.39340233793379
 1 -12.42443261726173  0.01645291939194 -3.93788136313631
 1 -11.05201854945495 -1.49841278527853 -3.70151926742674
 1 -8.84315521142114 -4.70042289058906 -1.95492307370737
 1 -7.67330103110311 -5.55479558775878 -1.01343557165717
 1 -9.33939610541054 -5.27001378837884 -0.49969822602260
 1 -3.26795692769277 -3.20831241574157 -0.15197185018502
 1 -1.48552964296430 -4.79060743804380  3.70324701170117
 1 -2.90901608900890 -5.41587222962296  4.01816903900390
 1 -1.74747617411741 -6.18509268636864  2.70433713661366
 1  2.50355502660266 -1.45649533943394 -1.84799887618762
 1  2.58389008920892  0.40289320772077 -1.83051507130713
 1  4.40683990829083 -1.10653866006601  0.31379375557556
 1  3.93489442574257  1.42302339863986 -2.58220156245625
 1  5.29109240764076  2.28345273547355 -1.84601895649565
 1  5.58934425722572  0.98592892309231 -2.94853615291529
 1  6.58053107640764  1.56017224492449 -0.33581608390839
 1  6.38234158215822  0.02509926102610  0.79438044514451
 1  7.48924266636664 -1.17899897159716 -1.17290141884188
 1  7.80712224322432  0.57595447194719 -1.81218136503650
 1  9.06743284048405  1.17784040054005  0.00158412091209
 1  8.50002782558256 -0.46912526792679  0.81792641124112
 1  10.11856356785679  0.11924669096910 -2.02659649024902
 1  9.08965546194620 -2.34011105540554 -1.77903286448645
 1  10.86014909960996 -2.39693620622062 -1.88438462446245
 1  10.26951442504251 -2.55195681828183 -0.32621471217122
 1  11.09849461166116  0.77095150265027  0.42636459985999
 1  11.37261767146715 -0.90364270237024  0.77719519251925
 1  12.88373410911091 -1.24010087148715 -1.32224055895590
 1  12.69443834983498  0.26326580558056 -1.64708307210721
 1  13.77552905610561  0.98355161066107  0.53169983048305
 1  13.79533562386239 -0.58877131443144  1.17196236593659
 1  15.34179657175718  0.15717557795780 -1.34989464896490
 1  15.41365336633663 -2.28887561346135  0.00190259265927
 1  15.00279781158116 -2.26389458305831 -1.52399011941194
 1  16.67951601020102 -1.90213414201420 -1.15558766756676
 1  16.11238644834483  1.30608968166817  1.02277569856986
 1  16.59343104510451 -0.28354475017502  1.32863579527953
 1  18.21351054295430 -0.35879284308431 -0.58640464806481
 1  17.87867794899490  1.13360461896190 -1.17011049494950
 1  18.74807349014901  2.17866976657666  1.15174027492749
 1  18.59772605000500  0.49392300360036  1.68512486408641
 1  20.63415348204820  0.35425186098610 -0.06978922852285
 1  19.90442727602760  3.31669065396540 -0.91153142264226
 1  21.37976409030903  2.46535241314131 -1.35684693869387
 1  19.82271310451045  1.79719112141214 -1.92244266756676
 1  21.54505452075207  0.85079438323832  2.07132657425743
 1  22.16115075557556  2.36965549674968  0.96573083928393
 1  20.70644317691769  2.63015669186919  2.05549148034804

