%nproc=4
%Mem=2GB
# td=(NStates=1) CAM-B3LYP/6-31G(d,p) 

TD

0 1
12 -7.21032270157016  0.69302754345435  0.12866091469147
 6 -4.84487336843684 -1.97498961026103  0.43660929582958
 6 -4.82002130843084  2.80263459075908  1.15023848104810
 6 -9.52425701450145  3.06188858825883 -0.24582591559156
 6 -9.54953598119812 -1.76463663866387 -0.80602871787179
 7 -5.04846762836284  0.39836109660966  0.61763928432843
 6 -4.27584518981898 -0.71433205360536  0.75465736853685
 6 -2.92165312651265 -0.35945121722172  1.28639408060806
 6 -2.97066735593559  1.12089322182218  1.70615342174217
 6 -4.34182226892689  1.51033141354135  1.06974323552355
 6 -2.87733552455246  1.26519300660066  3.23119664576458
 6 -1.80377465836584 -0.66004001410141  0.21983130893089
 6 -0.39807806180618 -0.43428165956596  0.71276985988599
 6  0.64342372077208 -0.62672610471047 -0.47684933673367
 8  0.28717926762676 -0.96906831063106 -1.56740602090209
 8  1.88622564756476 -0.42624753155316 -0.11476569666967
 7 -7.19144675317532  2.69487089438944  0.40242539933993
 6 -6.16030316131613  3.39738069196920  0.91619960396040
 6 -6.48127611731173  4.86669730013001  0.86518428292829
 6 -7.83564415981598  4.78898878557856  0.46937384438444
 6 -8.26689724292429  3.46480677197720  0.25188552775278
 6 -5.63592937413741  5.98363945524552  1.24491101630163
 6 -8.60706991939194  5.89885495349535  0.32396241814181
 6 -8.31703090089009  7.19370545484548 -0.09443370567057
 7 -9.15777081278128  0.64634111241124 -0.53598530383038
 6 -10.01601326032603  1.78224890749075 -0.60477560176018
 6 -11.31570631353135  1.37660865126513 -1.01615636523652
 6 -11.34759328002800  0.08348222552255 -1.20748001420142
 6 -10.03166305000500 -0.41379986808681 -0.87825712861286
 6 -12.40141838393839  2.50220250115011 -1.29797032793279
 6 -12.41399144484448 -0.78181924412441 -1.82979815701570
 6 -12.21682801480148 -1.21714559975998 -3.26885499089909
 7 -7.18981523362336 -1.40803016461646 -0.22157527622762
 6 -8.27544276657666 -2.18480441994199 -0.56317412331233
 6 -7.83249091659166 -3.59734391729173 -0.51371980098010
 6 -6.46533205520552 -3.58258257375738 -0.11542403450345
 6 -6.19855463366337 -2.21161731623162 -0.03573195179518
 6 -8.73348369306931 -4.81369418831883 -0.75697524452445
 6 -5.31768830653065 -4.43994998029803  0.19140764066407
 8 -5.15632699449945 -5.68010066366637  0.13592962776278
 6 -4.12149555955595 -3.32716565066507  0.44956584858486
 6 -3.58624298849885 -3.66668275287529  1.76309748944894
 8 -3.74450810541054 -3.08100133293329  2.83011672697270
 8 -2.59300064796480 -4.67771592409241  1.61648973697370
 6 -2.07945058355836 -5.25874634393439  2.89761109810981
 6  2.87098087468747 -0.62028128582858 -1.17696307120712
 6  4.13497682008201 -0.38992284168417 -0.49777230593059
 6  5.17405101250125  0.45936926142614 -0.98769867006701
 6  4.97269468606861  1.21962649894989 -2.29669676077608
 6  6.44678113571357  0.54662346924692 -0.24496118231823
 6  7.73865160406041 -0.06709859175918 -0.97738740744074
 6  8.99617870027003  0.00849111561156 -0.08939153335334
 6  10.25691658465847 -0.48945604390439 -0.89692608700870
 6  9.90467765396540 -1.89985932083208 -1.47103876537654
 6  11.41911302840284 -0.30898178877888 -0.03827362866287
 6  12.83518068706871 -0.51864838073807 -0.77331787158716
 6  13.95523121092109 -0.19348611181118  0.20795800880088
 6  15.33177852185219 -0.32654526622662 -0.43987703800380
 6  15.67969207140714 -1.77021980778078 -0.87694497429743
 6  16.42562581658166  0.36844123022302  0.46881606630663
 6  17.80190589488949  0.44395252105210 -0.11977025692569
 6  18.79414481398140  1.24667651445145  0.81553391509151
 6  20.26120380018002  1.34642038663866  0.19102870647065
 6  20.41035126402640  2.17529317731773 -1.07649347074707
 6  21.17251512561256  1.81073544294429  1.25027172877288
 1 -4.07159741824182  3.57801618331833  1.56301082208221
 1 -10.18511226292629  4.00001758565857 -0.54427873047305
 1 -10.41411067286729 -2.50344039873987 -1.05391893939394
 1 -2.68282697339734 -1.08487815151515  2.30620785938594
 1 -2.32144178217822  1.75779426802680  1.11376574307431
 1 -2.04512823612361  1.05258074707471  3.58778899229923
 1 -3.02069685588559  2.27718717531753  3.43058762626263
 1 -3.85936691789179  0.57556192389239  3.51370525502550
 1 -1.91424395129513 -1.68887480788079  0.06061107510751
 1 -1.91246544874487 -0.15006291499150 -0.67068216981698
 1 -0.10042713671367  0.45723364686469  1.13321557345735
 1 -0.15302125582558 -1.20021299669967  1.49371224712471
 1 -4.76793896159616  6.33755893099310  0.45568735093509
 1 -6.25496016631663  6.73727352615261  1.79983467266727
 1 -5.07193042184218  5.64912008340834  2.06715039373937
 1 -9.57946544544454  5.68257119321932  0.59254709920992
 1 -8.87102774317432  8.04932352185218 -0.10050945764576
 1 -7.37814285088509  7.42750331953195 -0.69164363496350
 1 -12.17175258805881  3.35005231053105 -2.05053135153515
 1 -13.29252446594659  1.90771640974097 -1.46020954465447
 1 -12.38940590199020  3.14266735213521 -0.47785928392839
 1 -12.58764129222922 -1.72698509670967 -1.32369257715772
 1 -13.26025202880288 -0.07989180218022 -1.59988734573457
 1 -12.99061952815281 -1.82041328052805 -3.58253125082508
 1 -12.47229740374038 -0.24641336723672 -3.69276685168517
 1 -11.22290563816382 -1.65051799579958 -3.42021113661366
 1 -9.22858375427543 -4.59749259755976 -1.76303388478848
 1 -8.29302300330033 -5.81695180338034 -0.64884911301130
 1 -9.35175734153415 -5.01503829082908  0.12694443824382
 1 -3.27380751275127 -3.38761034553455 -0.26438309130913
 1 -1.45310640064006 -4.32399077637764  3.27639432643264
 1 -2.97244243164316 -5.48039868226823  3.53504072617262
 1 -1.15762718921892 -6.09933411051105  2.55821252415242
 1  2.78845351645165 -1.61474116401640 -1.49656373267327
 1  2.51071277147715  0.18731164956496 -1.70645266506651
 1  4.26887611191119 -0.88499650585058  0.43729610581058
 1  3.89478041434143  0.86701779807981 -2.60989433173317
 1  5.15080837923792  2.30185457565757 -2.08642299689969
 1  5.66004132693269  0.91191152135214 -3.14800609990999
 1  6.64570759405941  1.69596582428243 -0.15038754105411
 1  6.45685903390339  0.13773052415242  0.79704071117112
 1  7.55333907600760 -1.06613768546855 -1.33333746244624
 1  7.66637816881688  0.35222209870987 -2.01966211311131
 1  9.06756285348535  1.06139875637564  0.22237620012001
 1  8.86078390119012 -0.68095645104510  0.77822244084408
 1  10.66363807530753  0.23294806110611 -1.60093392399240
 1  9.05024152055206 -2.00334737903790 -2.09192415361536
 1  10.82981606630663 -2.39055556815682 -1.98271445744574
 1  9.77447492109211 -2.51251287388739 -0.52517460816082
 1  11.41802656485648  0.67108151565157  0.37172913631363
 1  11.34581499119912 -0.92269460756076  0.91132860586059
 1  13.01148688438844 -1.58709557095710 -1.27892622752275
 1  12.91062996899690  0.35988546754675 -1.57529589338934
 1  13.70597210041004  0.67546080158016  0.76840350085009
 1  13.94334042434243 -0.76531896919692  0.94372954265427
 1  15.20013240534053  0.34240410081008 -1.33082274177418
 1  15.89962196319632 -2.38691541744174  0.00516291869187
 1  15.00894842664266 -2.13893208680868 -1.55232295269527
 1  16.76676473507351 -1.66055998459846 -1.41938404720472
 1  16.07546275597560  1.23992306500650  0.94028744974497
 1  16.51766346834684 -0.33912030773077  1.35832876457646
 1  18.17803699559956 -0.47695465926593 -0.30128613621362
 1  17.94733481468147  0.90122138063806 -0.97732121602160
 1  18.50958964176418  2.33758565816582  1.15416051695170
 1  18.88554483188319  0.93220683198320  1.74885123672367
 1  20.65917598429843  0.31480791659166  0.14528227862786
 1  19.90589742304230  3.07373635853585 -1.15071534103410
 1  21.42959907380738  2.21726760466047 -1.50499175317532
 1  19.93971480468047  1.41746314861486 -1.95225564886489
 1  21.15848586388639  1.32342164596460  2.30305974757476
 1  22.10050469096910  1.79614814601460  0.89749401560156
 1  20.94380691329133  2.95826950315031  1.43981991319132

