%nproc=4
%Mem=2GB
# td=(NStates=1) CAM-B3LYP/6-31G(d,p) 

TD

0 1
12 -7.12335400470047  0.60317855855586  0.15317336593659
 6 -4.84624350545054 -2.03146525782578  0.52317795269527
 6 -4.76325563186319  2.74217854515452  1.36441989918992
 6 -9.42138672747275  3.07090949034903 -0.30589192219222
 6 -9.45749677727773 -1.68721889688969 -0.98633674867487
 7 -5.11587436903690  0.39928118861886  0.88064558495850
 6 -4.29867747304730 -0.71762238263826  0.88176007880788
 6 -2.89389035023502 -0.38828410051005  1.27908334953495
 6 -2.95569585878588  1.05400653315332  1.78417122352235
 6 -4.30981906860686  1.52337271767177  1.29619588078808
 6 -2.84192198319832  1.19802628992899  3.27363088918892
 6 -1.92810709160916 -0.61059506960696  0.06491581738174
 6 -0.51263951795180 -0.40532876427643  0.43395197809781
 6  0.43666304470447 -0.49772320442044 -0.69202085388539
 8  0.13342389208921 -0.88423982778278 -1.83120240054005
 8  1.64936196119612 -0.50522542934293 -0.16727094719472
 7 -7.10476808530853  2.60357176447645  0.42838799559956
 6 -6.02244937593759  3.28092904680468  0.91988997299730
 6 -6.37325531523152  4.69963059345935  0.87781554605461
 6 -7.73172376777678  4.80993087978798  0.46852375937594
 6 -8.14183473667367  3.38426871817182  0.22164250345034
 6 -5.51977775897590  5.84294538583858  1.21098762396240
 6 -8.55607481988199  5.93404847284728  0.40658067996800
 6 -8.12582177997800  7.11980806510651 -0.18847310961096
 7 -9.13776881258126  0.66831330963096 -0.46841854715472
 6 -9.90124178317832  1.77208789138914 -0.66098122232223
 6 -11.22954769766977  1.41374236463646 -1.11050580018002
 6 -11.22110063076308  0.10448432573257 -1.30247951415142
 6 -9.90816069976998 -0.38251673977398 -0.92906220912091
 6 -12.21719996209621  2.51939422032203 -1.44473500440044
 6 -12.34876492219222 -0.76335739793979 -1.86412158935894
 6 -12.21665799779978 -0.96978086328633 -3.35845395079508
 7 -7.14818107020702 -1.28470783238324 -0.23906702540254
 6 -8.16201142344235 -2.09708564806481 -0.66361416731673
 6 -7.83256092359236 -3.56462064496450 -0.52644107310731
 6 -6.46836235823582 -3.52290660616062 -0.04067655975598
 6 -6.13756853505351 -2.15273142764276  0.05680730213021
 6 -8.62653299799980 -4.76079889878988 -0.69444899189919
 6 -5.24945148284828 -4.32800878617862  0.24483298319832
 8 -5.19554091589159 -5.53164581818182  0.30221625642564
 6 -4.14667807780778 -3.32653558765877  0.56669756175618
 6 -3.52940730493049 -3.70682676727673  1.89456063576358
 8 -3.77804145874587 -3.17412064486449  2.96413012831283
 8 -2.51516286418642 -4.57779593209321  1.70671875987599
 6 -1.99822246074607 -5.12496296559656  2.87177851485149
 6  2.81695547214721 -0.79514877257726 -1.14196957185719
 6  4.14541786418642 -0.62180603000300 -0.55329785848585
 6  5.06686029342934  0.18320164466447 -0.94355425562556
 6  4.98741615821582  1.07137167346735 -2.18535562666267
 6  6.32082854045404  0.30778958585859 -0.24077076327633
 6  7.55254299319932 -0.08523040494049 -1.07384705340534
 6  8.87317640004000 -0.03537327082708 -0.15175776997700
 6  10.17181807480748 -0.48777587588759 -0.92577897229723
 6  10.19048623482348 -1.93895323022302 -1.39176083758376
 6  11.39783090019002 -0.41970286088609 -0.05258505980598
 6  12.72890005900590 -0.58830534643464 -0.75541608140814
 6  13.83415910371037 -0.13963072627263  0.16733394639464
 6  15.24402974697470 -0.20071268296830 -0.39889293959396
 6  15.64124822702270 -1.63545633143314 -0.90010729052905
 6  16.28940219421942  0.41758614471447  0.45196438113811
 6  17.62252795709571  0.55392351815182 -0.17637591749175
 6  18.75767116661666  1.27216906370637  0.76700906260626
 6  20.19973765356536  1.40411615621562  0.21857146074607
 6  20.16430665956596  2.37897354535454 -0.99827564896490
 6  21.11244911901190  1.81920629002900  1.27669437103710
 1 -3.91741199969997  3.46191457315732  1.57351187218722
 1 -10.21158491019102  3.86769435333533 -0.13093739633963
 1 -10.34405366716672 -2.37444749944994 -1.39272281978198
 1 -2.72067075777578 -1.12460212391239  1.97605484408441
 1 -2.31294093209321  1.75145363396340  1.23786815331533
 1 -1.80361408470847  0.89378486748675  3.64826503990399
 1 -3.16562134833483  2.15101455805581  3.49162372987299
 1 -3.54751573277328  0.51916628432843  3.60722460696070
 1 -2.18664119101910 -1.34141006140614 -0.82879786578658
 1 -2.08402260446045  0.59090118141814 -0.55124022562256
 1 -0.40003709770977  0.55119304280428  1.11669392129213
 1 -0.22116807050705 -1.23245622102210  1.08934181008101
 1 -4.67042921062106  6.13515869096910  0.54363614581458
 1 -6.13797846814681  6.51804160296030  1.58445313451345
 1 -4.83710693949395  5.66334150555056  2.05739941864186
 1 -9.58774627352735  5.71671460756076  0.58598644314431
 1 -8.81963260366036  7.92154074357436 -0.16539594629463
 1 -7.12779781638164  7.34434500370037 -0.64552902350235
 1 -11.46317172997300  3.53672097739774 -1.73442974137414
 1 -13.23127834133413  2.05713135123512 -2.18341186488649
 1 -12.57168412981298  3.03924701010101 -0.35663716171617
 1 -12.17399992809281 -1.75749814801480 -1.46096630453045
 1 -13.28001400500050 -0.24851866486649 -1.42750010701070
 1 -12.84996546274627 -1.73988522772277 -3.69818281598160
 1 -12.50682085608561 -0.02876160206021 -3.78465604060406
 1 -11.27608095569557 -1.22778572257226 -3.85862497799780
 1 -9.06875777167717 -4.91942479077908 -1.76367394879488
 1 -8.06988068906891 -5.75950605880588 -0.54020824892489
 1 -9.46107827362736 -4.74137092409241  0.15354709850985
 1 -3.19518965096510 -3.26926851135114 -0.12883953695369
 1 -1.39657074707471 -4.50261863916392  3.39464615161516
 1 -2.75957114451445 -5.63467410981098  3.43267048914892
 1 -1.21183260976098 -5.93072724982498  2.49155585848585
 1  2.38333300440044 -1.94092378227823 -1.42848692499250
 1  2.65771747194720 -0.40563764536454 -2.03698571837184
 1  4.40961018531853 -1.03993199939994  0.37070944714472
 1  4.04129506580658  1.16004710101010 -2.80523386568657
 1  5.29643294169417  2.00531492169217 -1.98369272387239
 1  5.84529985278528  0.89115944614461 -2.94139543884388
 1  6.34018704200420  1.44364059175918  0.02286978467847
 1  6.27535088308831 -0.05782903180318  0.76469747684768
 1  7.33728747084708 -1.06825789748975 -1.63634776347635
 1  7.72175370637064  0.72978985548555 -1.89828997589759
 1  8.98391448864886  0.98705132163216  0.22649661216122
 1  8.92075989878988 -0.50337869326933  0.64140875947595
 1  10.38455016651665  0.25291005730573 -1.76758058865887
 1  9.20085658205821 -2.14973201750175 -1.74811977317732
 1  11.02955604030403 -1.98626513911391 -2.38527471347135
 1  10.50833830743074 -2.51853347594759 -0.67743983468347
 1  11.37577233943394  0.56706111361136  0.44802676607661
 1  11.32686309600960 -0.97587992609261  1.01989946294629
 1  12.84611034673467 -1.60082694409441 -0.82874120902090
 1  12.74409331533153 -0.01495201620162 -1.63201156495650
 1  13.64080558375838  0.84918817431743  0.44356101660166
 1  13.97705379567957 -0.97695013231323  0.84694986468647
 1  14.89804219631963  0.39939980038004 -1.27664732423242
 1  15.98897089808981 -2.36403312921292 -0.18184578217822
 1  14.86687421922192 -2.23680187378738 -1.46048376877688
 1  16.44002206080608 -1.71469539813981 -1.47840994979498
 1  15.96146135583558  1.41076014871487  0.70203362436244
 1  16.33734543654366 -0.24139053475347  1.26026895859586
 1  17.80832002390239 -0.48857582138214 -0.35196120372037
 1  17.47733781498150  1.42223348184818 -1.00492397629763
 1  18.41130981378138  2.20915281488149  1.09927502840284
 1  18.76996327372737  0.63652726402640  1.78841519311931
 1  20.47069713641364  0.47513394919492 -0.07307955755576
 1  19.87079391269127  3.40259924482448 -0.73441371087109
 1  21.14798091199120  2.50588646654665 -1.15273652765277
 1  19.55736656985698  2.05011641394139 -1.84101452475247
 1  21.03741375667567  1.12162146594659  2.16371581318132
 1  22.03945858635863  1.93107163836384  1.07068133433343
 1  20.77740027262726  2.81254493069307  1.63041897309731

