%nproc=4
%Mem=2GB
# td=(NStates=1) CAM-B3LYP/6-31G(d,p) 

TD

0 1
12 -7.23383505280528  0.57939618031803  0.14511255985599
 6 -4.85980486158616 -2.02806491779178  0.41094672957296
 6 -4.83985329162916  2.81874620192019  1.17015047224722
 6 -9.38390297909791  3.17127952735274 -0.30822215521552
 6 -9.56990801840184 -1.72243241824182 -0.84993310831083
 7 -5.14718750035004  0.39747100760076  0.73036055645565
 6 -4.36416402170217 -0.76059668006801  0.69829173197320
 6 -2.94753571477148 -0.45292056415642  1.16271171237124
 6 -3.02847313651365  1.08979011151115  1.72981578797880
 6 -4.39730781748175  1.47749813021302  1.07432369356936
 6 -2.81079887088709  1.23023951125113  3.17373089918992
 6 -1.88066234713471 -0.74502851295130  0.10026935273527
 6 -0.51317957195720 -0.47509574097410  0.51419000190019
 6  0.56767614601460 -0.70043347544754 -0.50968262006201
 8  0.24372492219222 -1.06086749054905 -1.62830211051105
 8  1.83249027402740 -0.38306321312131 -0.10964518461846
 7 -7.08895650415042  2.68812021932193  0.44989014581458
 6 -6.06508363936394  3.42426338023802  0.80580856485649
 6 -6.43292128182818  4.86701733213321  0.79409717421742
 6 -7.69166976237624  4.94028391509151  0.34841174817482
 6 -8.17462801600160  3.52813310461046  0.17463780298030
 6 -5.49049483068307  5.91155224652465  1.28544506970697
 6 -8.59308852125213  6.03071813981398  0.35453547544754
 6 -8.24770396819682  7.34857094139414  0.18048378607861
 7 -9.16597163286329  0.68231470977098 -0.51866357165717
 6 -9.80321198019802  1.83548423102310 -0.69771489568957
 6 -11.21717646054605  1.48085907630763 -1.10755550515051
 6 -11.30284880558056  0.10891476877688 -1.19290855705571
 6 -9.94991487518752 -0.38492698079808 -0.83315261816182
 6 -12.27165540764076  2.50790307120712 -1.43324385528553
 6 -12.42791283698370 -0.65544660686069 -1.64271944914491
 6 -12.40016634863486 -1.00830471567157 -3.15992409780978
 7 -7.22732898499850 -1.38052741434143 -0.18323144184418
 6 -8.34208943124312 -2.22838877837784 -0.53580138603860
 6 -7.86677434493449 -3.64288847174717 -0.40916934593459
 6 -6.51013653565357 -3.56952126762676 -0.00851334343434
 6 -6.15217999619962 -2.15659181368137  0.03026464786479
 6 -8.68853919861986 -4.80041286018602 -0.82853240024002
 6 -5.34221075877588 -4.38315430073007  0.24206270617062
 8 -5.23817517931793 -5.55533818741874  0.21732776757676
 6 -4.23174658465847 -3.36379931403140  0.49201009300930
 6 -3.45977034123412 -3.70751683628363  1.75654683438344
 8 -3.66525017961796 -3.14025725852585  2.84905862116212
 8 -2.64563591149115 -4.72236038853885  1.54164225222522
 6 -1.95200783928393 -5.14274474377438  2.68045938293829
 6  2.82608638523852 -0.71679093679368 -1.18843421832183
 6  4.10109343174317 -0.62319616901690 -0.50812334103410
 6  5.19361296869687  0.12752607710771 -0.89481938213821
 6  5.20123754035404  1.05879041534153 -2.13276036713671
 6  6.49755621322132  0.19525833273327 -0.08372505870587
 6  7.69497723662366 -0.38183006490649 -0.92220188888889
 6  8.97934701710171 -0.37501723522352 -0.12234482868287
 6  10.21645253825383 -0.77654475277528 -0.91912830723072
 6  10.19266645284528 -2.28809814471447 -1.29476113761376
 6  11.46174729182918 -0.36865775637564 -0.16554635593559
 6  12.75180234923492 -0.50214673057306 -0.86727726752675
 6  13.91725741354136  0.01098433523352  0.08762597559756
 6  15.35479082308231 -0.04828744044404 -0.49885293559356
 6  15.70416451865187 -1.54360714651465 -0.73859113891389
 6  16.38945219921992  0.54986937303730  0.50305949064906
 6  17.76947265156516  0.62813093889389 -0.12482076197620
 6  18.75463086258626  1.31972381918192  0.73459582128213
 6  20.13116079587959  1.56494223882388  0.28820842444244
 6  20.19948017691769  2.30390603860386 -1.08973479487949
 6  21.05689356345635  2.20810517991799  1.33655035663566
 1 -4.01413167166717  3.54121250295030  1.41636615761576
 1 -10.04362811451145  4.15684326822682 -0.46210051265127
 1 -10.35341460326033 -2.50984103880388 -0.91534508200820
 1 -2.64439313001300 -0.89091875557556  2.04803204180418
 1 -2.25362500050005  1.78015650425043  1.32424679117912
 1 -1.61717544084408  1.24274976397640  3.48311852525253
 1 -3.31653643984398  2.25052450905091  3.25653022052205
 1 -3.35908688988899  0.38823319101910  3.49981386588659
 1 -2.15964849174917 -1.70817673807381 -0.44482946894690
 1 -2.04386858905891 -0.35792370107011 -0.98781388298830
 1 -0.51452854685469  0.51105902940294  0.97883013491349
 1 -0.29237519121912 -1.04131710711071  1.46911978787879
 1 -4.89221138883888  6.53412858795880  0.45496727892789
 1 -6.09921459175917  6.57472727152715  2.01091578077808
 1 -4.71518474727473  5.49457462886289  1.86781045974597
 1 -9.62682018091809  5.90784372047205  0.59783762826283
 1 -8.83007364776478  8.16859544904490  0.25925651895189
 1 -7.26149118571857  7.44243481268127 -0.03624809540954
 1 -11.90566597939794  3.10347765306531 -2.50428672707271
 1 -13.28473368686869  2.11717735583558 -1.67344086778678
 1 -12.22155911731173  3.37242032743274 -0.32867436543654
 1 -12.63075560366037 -1.57673007120712 -1.19337954585459
 1 -13.34528053165316 -0.10875468846885 -1.50523788078808
 1 -13.37210767696770 -1.50186142534253 -3.62138513621362
 1 -12.37429760376038 -0.13889261516152 -3.76387396239624
 1 -11.58440178777878 -1.60481342534253 -3.46445556105611
 1 -9.21382227812781 -4.66376922522252 -1.76012359375938
 1 -8.22953665466547 -5.81685179337934 -1.06427065516552
 1 -9.47529969576958 -4.97814460146015 -0.00648890509051
 1 -3.53399353135314 -3.43883546804681 -0.35727238023802
 1 -1.55495658565857 -4.17554593189319  3.15292197919792
 1 -2.66595178257826 -5.72856349874987  3.49511673377338
 1 -1.10418184468447 -5.80431460856086  2.45361206410641
 1  2.40406507760776 -1.75750544044404 -1.77845192149215
 1  2.68340004020402 -0.05788286988699 -1.98318033783378
 1  4.16762598689869 -1.15545355155515  0.33132550875088
 1  4.18067900420042  1.43737483378338 -2.45344868716872
 1  6.06016931533153  1.78829321952195 -2.16948130273027
 1  5.62436775957596  0.41231156135614 -2.93930522982298
 1  6.82035505880588  1.22502873057306  0.12683018071807
 1  6.41590493849385 -0.41630487938794  0.84676568366837
 1  7.40890463256326 -1.41956302800280 -1.18723285198520
 1  7.77180871187119  0.01711858835884 -2.02173232013201
 1  9.07600369756976  0.59352196869687  0.24737870037004
 1  8.89705752855286 -1.19431778717872  0.70375499409941
 1  10.27041875337534 -0.17793302700270 -1.78025185578558
 1  9.33786028242824 -2.19410645494549 -1.98341330253025
 1  11.08695177987799 -2.49677619021902 -2.01040722672267
 1  10.15321279487949 -3.08518014061406 -0.47590968166817
 1  11.14834959715972  0.71058546604660  0.57343930733073
 1  11.70368077777778 -1.11718405650565  0.67414488748875
 1  12.94893062876288 -1.45895275667567 -1.10707904280428
 1  12.70729963596360  0.05306478547855 -2.00547891169117
 1  13.50922242544254  1.06495975147515  0.29111577207721
 1  13.69067515781578 -0.63531596889689  1.05731090079008
 1  15.48304069616962  0.52715257565757 -1.52827248674867
 1  15.54097609860986 -2.28383510941094  0.30461286368637
 1  15.07980551235124 -2.18744693829383 -1.39342706310631
 1  16.79481754035404 -1.81038496709671 -1.10479258805881
 1  16.15229043874387  1.52708178087809  0.73757717871787
 1  16.50088179017902  0.12765636993699  1.44395732743274
 1  18.20439963186319 -0.40545750955096 -0.37664367196720
 1  17.68372845404540  1.14207546604661 -1.14152763666367
 1  18.27415609840984  2.35694759435944  1.05143024392439
 1  18.76694297169717  0.80824443574357  1.73287963956396
 1  20.74523459015901  0.68197463326333  0.07572532293229
 1  19.94759159245925  3.34561354625463 -1.04459472897290
 1  21.21126724062406  2.07325320322032 -1.47544879887989
 1  19.54303513671367  2.04589599189919 -1.84151457475748
 1  20.94917493279328  1.43921322512251  2.16288573017302
 1  21.98598323882388  2.60226875807581  0.93051731793179
 1  20.59830236283629  3.09008268446845  1.56805273647365

