%nproc=4
%Mem=2GB
# td=(NStates=1) CAM-B3LYP/6-31G(d,p) 

TD

0 1
12 -7.18256992629263  0.56487472817282  0.10343839243924
 6 -4.80475935703570 -1.86830894219422  0.46914254915492
 6 -4.90205951225123  2.86196052335234  1.14635809300930
 6 -9.45972056085608  3.08947134653465 -0.36640797379738
 6 -9.60000102770277 -1.74346452145215 -0.84236235123512
 7 -5.01508429002900  0.46412767326733  0.62213973437344
 6 -4.37626523182318 -0.69848046844684  0.82863476627663
 6 -2.85004596579658 -0.42585785788579  1.16316175737574
 6 -2.99587987718772  1.08439957245725  1.61235404180418
 6 -4.42815090179018  1.50673105350535  1.12199846104610
 6 -2.91123891489149  1.38041452875288  3.27276080218022
 6 -1.99560384128413 -0.45449946004600 -0.02645331953195
 6 -0.45770402440244 -0.32561079247925  0.46927551045105
 6  0.44993437183718 -0.63048648074808 -0.65382703450345
 8  0.22672322202220 -0.96833823762376 -1.74151343164316
 8  1.78669569456946 -0.43894880168017 -0.22371659175918
 7 -7.18064567306731  2.55287669496950  0.30851600840084
 6 -6.11861899289929  3.27764871877188  0.89661764576458
 6 -6.49848783848385  4.72888351875187  0.92813057755776
 6 -7.76883747914791  4.85260514721472  0.48224513151315
 6 -8.24993554675467  3.43260355165517  0.06336667586759
 6 -5.53675945714571  5.81988307960796  1.49030555575558
 6 -8.66395560796080  6.08394346234623  0.37931795369537
 6 -8.20403960176018  7.38821490579058  0.23663940164016
 7 -9.16209124482448  0.67845432373237 -0.45019672497250
 6 -9.90734239323932  1.79885056765677 -0.59514463866387
 6 -11.22791753465347  1.40501149154916 -1.12134688428843
 6 -11.22686120682068  0.02490636793679 -1.22381164736474
 6 -9.92806268996900 -0.38864735283528 -0.87838714161416
 6 -12.37527576967697  2.32976525742574 -1.32480301120112
 6 -12.39698974467447 -0.82433349554956 -1.70598577577758
 6 -12.47599393139314 -0.80423430863086 -3.24039214461446
 7 -7.25526177827783 -1.44982434403440 -0.20066318501850
 6 -8.28658388068807 -2.27377331683168 -0.60787859375938
 6 -7.78443611111111 -3.67116129902990 -0.60652908190819
 6 -6.54072959495950 -3.50533484898490 -0.21347383948395
 6 -6.18926370457046 -2.14278043254325  0.02378399979998
 6 -8.53379372407241 -4.83759657855786 -1.14455400240024
 6 -5.24514105180518 -4.28855484078408  0.19764826472647
 8 -5.07630899269927 -5.49034168776878 -0.02438640384038
 6 -4.21344475447545 -3.25763869796980  0.56298719071907
 6 -3.61302566676668 -3.61509759435944  1.98883006270627
 8 -3.83238689328933 -3.11884511731173  3.09631334663466
 8 -2.75501684958496 -4.66168432093209  1.82963105110511
 6 -2.25979861836184 -5.14853532283228  3.12509384638464
 6  2.86330010661066 -0.64198345604560 -1.20860623552355
 6  4.15365868826883 -0.47240108950895 -0.46546907560756
 6  5.20029363676368  0.16559988448845 -0.98401830203020
 6  5.27513493009301  0.97622215851585 -2.26383347444744
 6  6.47490394799480  0.17213602050205 -0.14615130133013
 6  7.73510124902490 -0.40236211811181 -0.87212688138814
 6  9.00398948134814 -0.28000773427343 -0.07740033423342
 6  10.27922881588159 -0.74056115441544 -0.74053044744474
 6  10.18123530973097 -2.15432476737674 -1.21442310381038
 6  11.55797691479148 -0.35549644024402  0.13785398409841
 6  12.83564073307331 -0.50973748964896 -0.67007754755476
 6  14.06074176197620 -0.13397016021602  0.16648386138614
 6  15.31640698469847 -0.28456106780678 -0.50423347364736
 6  15.72986708890889 -1.75390817661766 -0.81338861866187
 6  16.45144839883988  0.46027041314131  0.33344252895290
 6  17.82541824612461  0.63260138593859 -0.37905618551855
 6  18.73976937643765  1.41472331913191  0.66611897359736
 6  20.24108178797880  1.54280002460246  0.20693029662966
 6  20.35525575447545  2.25514116211621 -1.11856767816782
 6  21.01146902100210  2.14790916031603  1.29282598419842
 1 -4.19966022452245  3.72795117681768  1.38189271027103
 1 -10.35323907560756  3.98979656355636 -0.40773507610761
 1 -10.26580584238424 -2.56061611631163 -1.04838838633863
 1 -2.48056674737474 -1.05508517221722  1.90515775437544
 1 -2.31451108910891  1.71500998959896  1.00592495899590
 1 -1.80905462876288  1.13921941094109  3.55077529092909
 1 -2.86982176837684  2.42517197379738  3.39376394389439
 1 -3.54649563076308  0.64560892859286  3.92664654915492
 1 -2.12867539443944 -1.36598251865187 -0.47884287028703
 1 -2.10994519671967  0.27446953825383 -0.96721182278228
 1 -0.35145223922392  0.57490541404140  1.24845709760976
 1 -0.27016296999700 -1.25068804420442  1.07310018591859
 1 -4.78103027072707  6.40847602270227  0.84219600180018
 1 -6.22001667196720  6.55604540334033  1.85559024822482
 1 -4.96869009780978  5.37132230363036  2.32578625732573
 1 -9.68271577047705  5.95553848994899  0.32673051755176
 1 -9.08881952235224  8.11423001250125  0.24979557285729
 1 -7.11359639623962  7.60951152035204  0.08962449184918
 1 -12.23313872667267  3.15004230953095 -2.12611891029103
 1 -13.25090030353035  1.70921655975597 -1.57356087978798
 1 -12.54305126652665  2.91509459485949 -0.44986648464847
 1 -12.01008353645364 -1.91580397859786 -1.20144035193519
 1 -13.36681268486849 -0.51579539253925 -1.11589894689469
 1 -13.48063853005300 -1.41730296949695 -3.62444544224422
 1 -12.69749992399240  0.14752602670267 -3.63758133313331
 1 -11.60402374997500 -1.26302924692469 -4.01052016751675
 1 -9.02263315921592 -4.74574742304230 -2.25105268666867
 1 -7.82534623562356 -5.82551265946595 -1.10088431653165
 1 -9.29770193599360 -5.10733752075208 -0.51224948114812
 1 -3.49336946894690 -3.34554613911391 -0.15799245224522
 1 -1.67853894389439 -4.40153853115311  3.63411009800980
 1 -3.01375656305631 -5.27559820222022  3.99274649674968
 1 -1.51058248474847 -6.10221439853985  3.10824752765277
 1  2.63219789088909 -1.60909059895990 -1.43889796609661
 1  2.49114081428143 -0.17905498709871 -2.16051807160716
 1  4.33130235453545 -0.89887789398940  0.48736111231123
 1  4.14697563386339  0.97649874617462 -2.73878722102210
 1  5.28547184558456  2.06299068926893 -1.73087744234423
 1  6.13217854065407  0.67431776197620 -2.76156745604560
 1  6.80419344264426  1.13348957665767  0.19837733543354
 1  6.41145449344934 -0.36813006190619  0.93013402050205
 1  7.66808055015502 -1.43619469116912 -1.31378550725072
 1  7.80566209720972  0.27636451295129 -1.80241038793879
 1  9.43008910611061  0.79471208770877  0.44947891039104
 1  8.77082490529053 -1.27001535693569  0.74080869946995
 1  10.39344105560556 -0.07375260896090 -1.58414224482448
 1  9.29225572197220 -2.17844488878888 -1.82353731493149
 1  10.99975306000600 -2.34749126172617 -1.89879606560656
 1  10.16593406700670 -2.86188781138114 -0.36468855955596
 1  11.58211297349735  0.55801020852085  0.49710167356736
 1  11.80709111881188 -0.90207254535454  0.93074054705471
 1  13.00691642734273 -1.70789765116512 -1.08926726162616
 1  12.83893279927993 -0.05028554955496 -1.64301266506651
 1  14.01734323752375  0.94951820732073  0.37134379487949
 1  14.00227631793179 -0.73099553685369  1.23298846854686
 1  15.34464685678568  0.42209206960696 -1.35796545604560
 1  15.91114311531153 -2.32906963286329  0.11493389578958
 1  15.05430296209621 -2.47695588918892 -1.38722644304430
 1  16.68194625322532 -1.55556948554855 -1.62210431923192
 1  16.07062227192719  1.20994006670667  0.69945336633663
 1  16.59636133813381 -0.34128052375237  0.95539847154715
 1  18.11235042694269 -0.26749371317132 -0.75966197379738
 1  17.45361544274428  1.25086634513451 -1.39422290619062
 1  18.27169585238524  2.45476737633763  0.73432853375338
 1  18.44707098449845  0.85296890819082  1.68899525112511
 1  20.59967003370337  0.70538697449745 -0.19506175577558
 1  19.95194202750275  3.34410339523952 -1.00798106760676
 1  21.37026314021402  2.41458733663366 -1.60113136713671
 1  19.52013284648465  1.82493389568957 -1.95198562186219
 1  21.17750776607661  1.73534283808381  2.31043048464846
 1  22.06725136563657  2.22441097229723  0.94689895609561
 1  20.61092362496250  3.10149382558256  1.54289022022202

