%nproc=4
%Mem=2GB
# td=(NStates=1) CAM-B3LYP/6-31G(d,p) 

TD

0 1
12 -7.14926659595960  0.63542178287829  0.15971402000200
 6 -4.84651353245324 -1.95264737603760  0.65773140804080
 6 -4.81508081438144  2.92969729702970  1.15406886408641
 6 -9.33727831663166  2.94494689408941 -0.39409074207421
 6 -9.45818684628463 -1.76232640764076 -0.90362847784778
 7 -5.10850363196320  0.49797105760576  0.82257977837784
 6 -4.28295590089009 -0.63446406680668  0.89356125892589
 6 -3.01998295949595 -0.30235550765076  1.27832327352735
 6 -3.02167245644564  1.03772490499050  1.74648745514551
 6 -4.41116920362036  1.58749913031303  1.23171943314331
 6 -3.05507329832983  1.20925741304130  3.41994552065207
 6 -1.89875415631563 -0.50268427852785  0.07470679647965
 6 -0.54520277427743 -0.41686991839184  0.54607319021902
 6  0.48288766716672 -0.64682811491149 -0.60885253705371
 8  0.19334988468847 -0.98603000680068 -1.76359563986399
 8  1.72553957895790 -0.36070097689769 -0.16495071517152
 7 -7.20644825332533  2.58273968126813  0.39705486228623
 6 -6.12555968696870  3.34739569346935  0.73176116011601
 6 -6.52852084178418  4.67654828522852  0.93793155765577
 6 -7.78844944034403  4.84828471517152  0.55066197319732
 6 -8.20738129132913  3.39297958925893  0.03242358155816
 6 -5.64937071827183  5.76504759605961  1.46832335753575
 6 -8.61468068046805  5.95719078707871  0.21827184908491
 6 -8.19455865366537  7.27734381868187  0.08530426812681
 7 -9.11178621432143  0.57087356565657 -0.57653935923592
 6 -9.82797445644564  1.68524920752075 -0.69470459465947
 6 -11.18199294219422  1.43669465986599 -1.17436218581858
 6 -11.23395191589159  0.11216509380938 -1.38026729292929
 6 -9.94003388708871 -0.40034852295230 -0.85886518941894
 6 -12.26193443554356  2.42167444834483 -1.42520305120512
 6 -12.28275832153215 -0.72010307250725 -1.91784696189619
 6 -12.01830816281628 -1.10871475667567 -3.34077218261826
 7 -7.17240349244924 -1.43263262486249 -0.10009312801280
 6 -8.16602182448245 -2.14704064356436 -0.62942074797480
 6 -7.79935760326033 -3.50518470137014 -0.64286271527153
 6 -6.42439796179618 -3.53496781228123 -0.24476696879688
 6 -6.16535131333133 -2.15200135463546  0.16119774117412
 6 -8.62617296199620 -4.81190400930093 -0.88373792079208
 6 -5.34669120682068 -4.35773175847585  0.19915841574157
 8 -5.15649701150115 -5.56632928652865  0.14535056985699
 6 -4.15502891289129 -3.29477241134113  0.66418731073107
 6 -3.58252261646165 -3.71857794239424  1.99483066276628
 8 -3.87170082468247 -3.21793502630263  3.06369008430843
 8 -2.78518986688669 -4.81840999349935  1.91379946794679
 6 -2.17154979347935 -5.22640310961096  3.12038337533753
 6  2.74022779937994 -0.54392365006501 -1.14349972487249
 6  4.08140146254626 -0.33277712711271 -0.41281381008101
 6  5.13986759415942  0.40905422992299 -0.92050195039504
 6  5.22539995659566  1.27767230353035 -2.14540163126313
 6  6.47434389198920  0.40476928382838 -0.15304199039904
 6  7.58648638753875 -0.26298818071807 -0.99799946864686
 6  8.91104018641864 -0.20988072157216 -0.25698829302930
 6  10.09219011201120 -0.48055515381538 -1.03688008240824
 6  10.20172735893589 -1.96049538443844 -1.59008066956696
 6  11.44594571167117 -0.27508839943994 -0.27405720702070
 6  12.76351352035203 -0.48091460736074 -0.94996553635364
 6  13.96866255405541 -0.00933769696970  0.01820903390339
 6  15.37817316131613 -0.19905251695170 -0.51830488078808
 6  15.75242934513451 -1.70902368816882 -0.79976725652565
 6  16.39504275827582  0.47235162126213  0.39074825952595
 6  17.79625532983298  0.56152427822782 -0.23175145504550
 6  18.79749514901490  1.11455330213021  0.84331669336934
 6  20.22149982978298  1.27625336993699  0.27257686128613
 6  20.31556178507851  2.10457610561056 -1.05025084648465
 6  21.17054492859286  1.82826719611961  1.39148585018502
 1 -4.30212047054705  3.74929331103110  1.47542206320632
 1 -10.13204695639564  3.73519110301030 -0.45009931253125
 1 -10.11342060386039 -2.51136119081908 -1.16724027152715
 1 -2.73395208590859 -0.99746941064106  2.17203444204420
 1 -2.28887852585259  1.81484997359736  1.40833520002000
 1 -1.99681340464046  1.14831032003200  3.73563377677768
 1 -3.37776256245625  2.13926338293829  3.78098266576658
 1 -3.81349233043304  0.46009037673767  3.75631951645164
 1 -1.92563509040904 -1.62641856225623 -0.48477346334633
 1 -2.06775097729773  0.23950604190419 -0.74260936253625
 1 -0.18463555755575  0.49712763626363  0.98820107200720
 1 -0.17664361806181 -1.35071804720472  1.27437031293129
 1 -5.15020718841884  6.27974314941494  0.63352513471347
 1 -6.15655032533253  6.51872167096710  1.80072476167617
 1 -5.01582481128113  5.26200137153715  2.21782546124612
 1 -9.71341884078408  5.87646058215822  0.08458630313031
 1 -8.96790743114311  8.06170475997600 -0.07158656535654
 1 -7.09273431003100  7.39917048624863  0.25066059545955
 1 -11.96598201100110  2.95224252955296 -2.38116441484148
 1 -13.29971518501850  1.99703534163416 -1.72077560126013
 1 -12.30958792019202  3.05257834323432 -0.36785828382838
 1 -12.52155468356836 -1.68032043024302 -1.57954816271627
 1 -13.35792179577958 -0.29425323832383 -1.93033039003900
 1 -12.86762722892289 -1.66801804100410 -3.75543854155415
 1 -12.12450262426243 -0.06032475837584 -3.87624519951995
 1 -10.99712305990599 -1.44783772777278 -3.59245836133613
 1 -8.55882677857786 -5.09792264056406 -1.94209179057906
 1 -8.05096879787979 -5.76580668886889 -0.37956218431843
 1 -9.86112827862786 -4.86851363836384 -0.61063932013201
 1 -3.41382151415142 -3.53030461496150 -0.03046969997000
 1 -1.37729881988199 -4.53535191249125  3.59196588358836
 1 -2.72677786518652 -5.53207384978498  3.81903912601260
 1 -1.62204363086309 -6.20470464756476  2.87790449334934
 1  2.82095676677668 -1.57644733463346 -1.51622569886989
 1  2.60476217641764  0.13302622102210 -1.98687070687069
 1  4.20220944524452 -0.90842884908491  0.72559493569357
 1  4.06914785108511  1.32399349564957 -2.64054739703970
 1  5.44077737613761  2.33611800200020 -1.97599195379538
 1  5.99158448124813  0.88477880808081 -2.83978527782778
 1  6.79214223752375  1.46665289298930  0.10181767946795
 1  6.30281362936294  0.08215496659666  0.70518152525252
 1  7.39311305340534 -1.12587365906591 -1.19360348904890
 1  7.83587511851185  0.33683055955596 -1.84613476037604
 1  8.97014311151115  0.75686830333033  0.25331929442944
 1  8.93219104190419 -0.85695405080508  0.74527914651465
 1  9.89234094559456  0.22610737703770 -1.85925975657566
 1  9.30083658005801 -2.36419346364636 -2.12652761396140
 1  11.06646973167317 -2.07611412401240 -2.12171835783578
 1  10.21068854245425 -2.57148877147715 -0.72327441814181
 1  11.26547130933093  0.86572097959796  0.11183314671467
 1  11.24535494519452 -0.80010234833483  0.78758623162316
 1  12.88008374407441 -1.71252811421142 -1.28972730763076
 1  12.77734664066407 -0.02907342834283 -1.93289165296530
 1  13.46357786098610  1.07540079557956  0.32608926942694
 1  13.78329441974197 -0.65685812311231  0.92381755145515
 1  15.32007439953995  0.24774463486349 -1.56708636813681
 1  15.94095609660966 -2.07901462736274  0.04424682708271
 1  15.01197872967297 -2.43399159275928 -1.35173289368937
 1  16.75987404600460 -1.53740766936694 -1.49278138693869
 1  15.99745495519552  1.51089016171617  0.60387380838084
 1  16.33383508550855  0.02864646894690  1.32034496619662
 1  18.19343853575358 -0.44594155795580 -0.41124713231323
 1  17.72551263246325  1.31229248774878 -0.95047853175318
 1  18.35212389518952  2.15356725632563  1.27188228912891
 1  18.73563984138414  0.46436004730473  1.79583593519352
 1  20.61755182188219  0.40472690849085 -0.01545379497950
 1  19.99848668196820  3.19474845974598 -1.12216248574858
 1  21.41633774767477  2.12111798969897 -1.33578483248325
 1  19.76424725792579  1.65954735703570 -1.81733215651565
 1  21.23828384368437  1.16119542334233  2.24921436303630
 1  22.17907254775477  1.95591412261226  1.02291655785579
 1  20.99977250985098  3.02281595779578  1.33911984318432

