%nproc=4
%Mem=2GB
# td=(NStates=1) CAM-B3LYP/6-31G(d,p) 

TD

0 1
12 -7.10758242754275  0.62109034973497  0.02511055965597
 6 -4.75605448654865 -1.99628173947395  0.54891052595260
 6 -4.75066437273727  2.76194052135214  1.18640209740974
 6 -9.39986457525752  3.14106650605060 -0.39636096909691
 6 -9.55120614821482 -1.71337151215122 -0.93782189718972
 7 -5.11540432203220  0.42044330483048  0.68737625802580
 6 -4.33844144944494 -0.76140676107611  0.88607050985099
 6 -2.89585054625463 -0.38526379847985  1.17632307350735
 6 -2.97291758095810  1.12008314081408  1.71252405880588
 6 -4.40181826852685  1.44453483388339  1.12814907610761
 6 -2.96790458145815  1.17160364766477  3.28289181528153
 6 -1.88934321522152 -0.60066407650765 -0.04637531173117
 6 -0.49696795079508 -0.39326755815582  0.37468605150515
 6  0.58285766416642 -0.65927936003600 -0.64578623042304
 8  0.25117566726673 -1.05393679747975 -1.76787606790679
 8  1.86555358035804 -0.47161206800680 -0.27390161026103
 7 -7.09570717921792  2.61593300060006  0.31415657245725
 6 -5.99395652665267  3.33905485938594  0.78920690469047
 6 -6.31405939563956  4.74049467986799  0.84650241474147
 6 -7.67341793719372  4.81277116381638  0.38508541554155
 6 -8.10032058525852  3.43838412971297  0.08398873807381
 6 -5.49595537673767  5.89897098839884  1.32579910511051
 6 -8.63041225362536  5.95393046104611  0.45391541344134
 6 -8.24511370917092  7.18459454375438  0.07102283998400
 7 -9.03868890459046  0.71410788908891 -0.51389309460946
 6 -9.82943460246025  1.80026070867087 -0.71701682588259
 6 -11.17235197809781  1.47978896929693 -0.98297304690469
 6 -11.21980050075008  0.09982385968597 -1.20315958215822
 6 -9.89015889958996 -0.32606109420942 -0.91076037893789
 6 -12.35306354845485  2.40823310421042 -1.06214674557456
 6 -12.35975602130213 -0.70916197839784 -1.70314549174917
 6 -12.35262159415942 -1.00849473467347 -3.22504060946095
 7 -7.27142339443944 -1.37129649124913 -0.19438255695570
 6 -8.30698592089209 -2.22335827532753 -0.58183598949895
 6 -7.79113678117812 -3.58249243214321 -0.46475490449045
 6 -6.53286880888089 -3.53671798729873 -0.07818031013101
 6 -6.25871064926493 -2.19913606810681  0.10604222562256
 6 -8.59854019871987 -4.76937975687569 -0.94898444544454
 6 -5.43474001170117 -4.38670465576558  0.16369486938694
 8 -5.26681804360436 -5.59447210081008  0.07445348014801
 6 -4.20206361636164 -3.32292522662266  0.63414430643064
 6 -3.55773013721372 -3.72811889648965  1.97397857755776
 8 -3.84956861146115 -3.28812204500450  3.08743245854585
 8 -2.79328067596760 -4.77422557505751  1.91704979297930
 6 -2.28848148664866 -5.26663713301330  3.17455879287929
 6  2.89418319491949 -0.71070032773277 -1.27774314921492
 6  4.13990731313131 -0.48121197059706 -0.51932446114611
 6  5.13849745714571  0.33410673517352 -1.07493739393939
 6  5.05945336193619  1.06191072737274 -2.38382547364736
 6  6.44579103670367  0.40220902780278 -0.27333401960196
 6  7.66893463236324 -0.13151503340334 -1.04191386008601
 6  8.89844892729273 -0.13411314481448 -0.22574516871687
 6  10.18845973897390 -0.55970306860686 -0.94165055945595
 6  10.08809599579958 -1.95489482438244 -1.46952861436144
 6  11.41815293239324 -0.19005989658966 -0.05298509980998
 6  12.74179134813481 -0.45579209510951 -0.65127566736674
 6  13.83700938873887 -0.05401216441644  0.22696990999100
 6  15.29968531253125 -0.02442505420542 -0.49054210451045
 6  15.75170927312731 -1.37296008180818 -0.99566684648465
 6  16.41908516251625  0.44615900200020  0.56734591929193
 6  17.78233393769377  0.56546467226723 -0.04110239013901
 6  18.76634203370337  1.30907275407541  0.82136449814982
 6  20.20365804560456  1.25803154775478  0.30155975957596
 6  20.40467069596960  1.99113476147615 -0.98590441184118
 6  21.15725359945995  1.95696006540654  1.34433113471347
 1 -3.99146940544054  3.50457883958396  1.38899342034203
 1 -10.10014376607661  3.80115769966997 -0.52914721732173
 1 -10.37470673247325 -2.47912796749675 -1.24525807330733
 1 -2.40222891359136 -0.92389205290529  2.13968120672067
 1 -2.16980661866187  1.66475496409641  1.31597596409641
 1 -2.01613533683368  0.98092358135814  3.73175338873887
 1 -3.15295008120812  2.38353781038104  3.63051761926193
 1 -3.76720770197020  0.91907627532753  3.82572645714572
 1 -1.98143066996700 -1.74649056945695 -0.50505549154916
 1 -2.06380058225823  0.09841193249325 -0.95236033763376
 1 -0.24782187618762  0.42037996149615  1.19082133403340
 1 -0.23750970467047 -1.38141111651165  1.17354022992299
 1 -4.75693786148615  6.01328650375038  0.48850063226323
 1 -6.18152282258226  6.74163396219622  1.48650333953395
 1 -5.03175640444044  5.75719089048905  2.36863054175417
 1 -9.66578407730773  5.72372530863086  0.28546639113911
 1 -8.89216985738574  8.08683727322732 -0.03827323402340
 1 -7.30237527412741  7.56971754095410 -0.07794226482648
 1 -12.37437285008501  2.96975428072807 -1.82770906930693
 1 -13.38775398889889  1.76160179827983 -1.19172269596960
 1 -12.14134109550955  3.11917500290029 -0.16772827082708
 1 -12.37539006710671 -1.57098949714972 -1.15206541444144
 1 -13.14480048364837 -0.17614142714271 -1.20454781178118
 1 -13.36597706390639 -1.49176041524152 -3.55534853255325
 1 -12.51991216521652  0.15140641474147 -3.73860143514352
 1 -11.52397574517452 -1.75248819281928 -3.66623573907391
 1 -8.85500639653966 -4.29718256655666 -2.06849443084308
 1 -7.80889459045905 -5.48064817301730 -1.04962919101910
 1 -9.57823998979898 -4.99742652965297 -0.22125038123812
 1 -3.37205733773377 -3.38867045154515 -0.11906855985599
 1 -1.56837792779278 -4.70149852715272  3.51500818781878
 1 -3.26878206560656 -5.47307795019502  3.73230045214521
 1 -1.92574400090009 -6.38619279637964  2.96306300920092
 1  2.96967163826383 -1.84213390329033 -1.61323539983998
 1  2.66743844404440 -0.13373045464546 -1.98062008180818
 1  4.37847707200720 -1.08138614481448  0.29767214341434
 1  3.93471440774077  1.17706880318032 -2.75267861016102
 1  5.53073637203720  2.15758014821482 -2.37064141874187
 1  5.68994431723172  0.69046937713771 -3.11620291959196
 1  6.58196121942194  1.46780300800080  0.02420991869187
 1  6.35905925392539 -0.21317456635664  0.59019002610261
 1  7.61104484658466 -1.14213528522852 -1.69387351605160
 1  7.54283581458146  0.40453733023302 -2.01006115301530
 1  8.92522862006201  0.93519613611361  0.14784874737474
 1  8.75635345814582 -0.82737109250925  0.70803542214221
 1  10.42584429592959  0.11691645794579 -1.79292312291229
 1  9.44553104950495 -2.05260230453045 -2.21085604680468
 1  11.00811389608961 -2.28147466006601 -1.86632281828183
 1  9.78848632223222 -2.49249087168717 -0.63270536123612
 1  11.37464222642264  0.93401780928093  0.04384634803480
 1  11.26854726442644 -0.84680701880188  0.95042251525153
 1  12.84238997469747 -1.55800266166617 -1.04538287318732
 1  12.77561646764677  0.01087056605661 -1.59348771257126
 1  13.58715021822182  0.92952620812081  0.45845250575057
 1  13.89628571887189 -0.74335677297730  1.18629379907991
 1  15.37830022212221  0.59418927932793 -1.26268592809281
 1  15.74475647664767 -1.86698342424242 -0.00963856145615
 1  15.02477000880088 -1.98341653525352 -1.46783450385039
 1  16.69719777837784 -1.55751968056806 -1.30738284708471
 1  16.10836604630463  1.58823789648965  0.90279370037004
 1  16.29201090309031 -0.25465186088609  1.42487541924193
 1  18.04577376927693 -0.45866283008301 -0.30197620522052
 1  17.86547662886289  1.23580483898390 -0.95770925482548
 1  18.36725540834083  2.42219411901190  0.88676377727773
 1  18.75807208460846  0.72413602490249  1.74869122072207
 1  20.48954902160216  0.09388582438244  0.20170792119212
 1  20.20780761406141  3.17150613551355 -1.07637790729073
 1  21.54205031893189  1.95748162606261 -1.14426568056806
 1  19.80324115731573  1.77443884618462 -1.92431285458546
 1  21.46335635093509  1.60712001580158  2.45428487008701
 1  22.16392103260326  2.10692922412241  0.82501676787679
 1  20.79664219681968  2.99163283948395  1.22863879507951

