%nproc=4
%Mem=2GB
# td=(NStates=1) CAM-B3LYP/6-31G(d,p) 

TD

0 1
12 -7.22626429572957  0.58469671037104  0.06438448704871
 6 -4.87099598069807 -1.92407451875188  0.47018265316532
 6 -4.80678998529853  2.96476080338034  1.08207166436644
 6 -9.44313890269027  3.06955935533553 -0.33213454645465
 6 -9.63268429602960 -1.79148932393239 -0.64485260026003
 7 -5.09777255885589  0.55602686318632  0.67219473987399
 6 -4.33415102040204 -0.66096671707171  0.89040094289429
 6 -2.86624758595860 -0.33373864596460  1.16419186038604
 6 -2.99773006220622  1.21467259975998  1.64953776017602
 6 -4.40004809150915  1.63148352875288  1.06366262746275
 6 -2.94291208220822  1.35082156945695  3.21230475657566
 6 -1.97950223112311 -0.53530754085409 -0.02969364356436
 6 -0.54734298829883 -0.66772500390039  0.42603118601860
 6  0.60307968636864 -0.63477690979098 -0.60867251905190
 8  0.33811436113611 -0.80832223602360 -1.77033631393139
 8  1.88037506250625 -0.61684659145915 -0.12043626372637
 7 -7.16265387388739  2.67895930323032  0.38240339713971
 6 -6.06570370137014  3.41616257015702  0.76719470347035
 6 -6.51677966766677  4.90056068646865  0.78869663416342
 6 -7.84113470887089  4.85688557525753  0.49789669666967
 6 -8.22363291649165  3.48062835413541  0.19325966516652
 6 -5.68029381058106  6.02946403770377  1.31461798699870
 6 -8.74441365376538  6.06563163116312  0.41875189708971
 6 -8.33220241804180  7.25669175347535  0.12133787148715
 7 -9.15407044274427  0.59816629492949 -0.42165387068707
 6 -9.84888654765476  1.75621630423042 -0.64352947714771
 6 -11.15560030293029  1.44464545494550 -1.05734048364836
 6 -11.31006952765276  0.01854573187319 -1.04971423762376
 6 -10.00808069176918 -0.46402489058906 -0.72299160206021
 6 -12.30157839994000  2.39500178107811 -1.40832136303630
 6 -12.50465051075108 -0.70847190939094 -1.60809598679868
 6 -12.46261259325933 -1.11675556075608 -3.11498960436044
 7 -7.29406565866587 -1.51434079567957 -0.10843396209621
 6 -8.32985820812081 -2.23631957145715 -0.36701450735073
 6 -7.86984465196520 -3.59457364026403 -0.41187961696170
 6 -6.56373189518952 -3.53431774727473 -0.03683617571757
 6 -6.19092387058706 -2.16650280478048  0.11909353075308
 6 -8.55071541624162 -4.84611743064306 -0.92862240924092
 6 -5.24384092179218 -4.33119910521052  0.00272877277728
 8 -5.10606196799680 -5.54214686828683 -0.11270523572357
 6 -4.12765617561756 -3.28464139823982  0.48873976597660
 6 -3.58084244844484 -3.64535061966197  1.73831501120112
 8 -3.76752040664066 -3.15639887268727  2.83119683498350
 8 -2.76973832173217 -4.77451560406041  1.62658074607461
 6 -2.14470710921092 -5.26277674697470  2.68539987698770
 6  2.78678245484548 -0.81322057975798 -1.17557293219322
 6  4.15937926032603 -0.52218606800680 -0.53410593929393
 6  5.14112772017202  0.28822214671467 -0.85189508970897
 6  5.19867728432843  0.87655219151915 -2.21788887998800
 6  6.50945740334033  0.24263307020702 -0.13180986718672
 6  7.70746848574857 -0.33576545844584 -0.93422309100910
 6  8.97705678807881 -0.12419215271527 -0.18993158735874
 6  10.23273416641664 -0.58698579687969 -0.93418981338134
 6  10.24144133033303 -2.14722405730573 -1.23403506500650
 6  11.44200531763176 -0.25890678127813  0.00370056875688
 6  12.87595476447645 -0.41722823872387 -0.66311685148515
 6  14.01622731053105 -0.07360412361236  0.17730494349435
 6  15.45148049204921 -0.22946555825583 -0.44242729302930
 6  15.68430253245325 -1.70890367616762 -0.71998927872787
 6  16.46740999499950  0.51207559365937  0.47332651735174
 6  17.88919462376238  0.50356848264826 -0.10112839273927
 6  18.80002540204021  1.38954080088009  0.79136149784978
 6  20.24338201800180  1.45464120872087  0.20332993659366
 6  20.39178940784078  2.16274192219222 -1.13623944534453
 6  21.22446032013201  2.08716308570857  1.21314801640164
 1 -3.98478873737374  3.67923630533053  1.32415693669367
 1 -10.27809156085609  3.94769235313531 -0.43088739133913
 1 -10.36381564336433 -2.52047210191019 -1.09279282678268
 1 -2.70227891859186 -0.92764242794279  2.14234147274727
 1 -2.18125776377638  1.85686417501750  1.23682804930493
 1 -1.84822854615462  1.48773426242624  3.56045625902590
 1 -3.66142092829283  2.50700015661566  3.35977054455446
 1 -3.52852383358336  0.45135950365036  3.69825370987099
 1 -2.09255178207821 -1.58718463886389 -0.42089707570757
 1 -2.25825002720272  0.08136022732273 -0.78327342894289
 1 -0.21734882888289  0.16956487998800  1.08585083698370
 1 -0.35128108180818 -1.47734070947095  1.13499637553755
 1 -5.10526269396940  6.17055223032303  0.33026480868087
 1 -6.12163683398340  6.85087488628863  1.64853954315432
 1 -4.97081030983098  5.63455862726273  2.04073775247525
 1 -9.83260075897590  5.91959489558956  0.50742858735874
 1 -8.93865450585058  8.14463305280528  0.04726531983198
 1 -7.17466250285028  7.54585515471547  0.07207273667367
 1 -11.90421583438344  2.87239454475448 -2.26151244964496
 1 -13.24678989248925  1.81972761086109 -1.47091061476148
 1 -12.36044300570057  3.23748683408341 -0.72211370937094
 1 -12.78822135023502 -1.66149854805481 -0.99035924382438
 1 -13.24067007060706 -0.03404721772177 -1.46512386938694
 1 -13.42411287748775 -1.67547878707871 -3.45424842254225
 1 -12.41522169616962 -0.23509223512351 -3.84067164216422
 1 -11.56052940054005 -1.75168811281128 -3.26345546104610
 1 -8.71704260016002 -4.73791663996400 -2.04547212861286
 1 -8.10028372937294 -5.79469957815782 -0.93433766186619
 1 -9.72542470827083 -4.84963175017502 -0.51990024622462
 1 -3.30488062006201 -3.34585617011701 -0.36038269126913
 1 -1.65080617061706 -4.53175155245524  3.30494718171817
 1 -2.69735492289229 -5.61194183658366  3.62486970907091
 1 -1.43686511301130 -5.88890306740674  2.14703140604060
 1  2.76947161826183 -1.82494218411841 -1.64511858815882
 1  2.34076577677768 -0.04471155275528 -2.01960398019802
 1  4.13456268056806 -0.86603460966097  0.38471084728473
 1  4.06481741804180  1.03604470077008 -2.51909525182518
 1  5.62708600700070  1.86416080628063 -2.38249260386039
 1  5.89971529432943  0.49324965516552 -3.02108340764076
 1  6.86018904220422  1.22669889758976  0.10862836053605
 1  6.38167151515152 -0.36231948084808  0.57456846394639
 1  7.38213195529553 -1.42758383008301 -1.23496762546255
 1  7.50223175417542  0.33021989848985 -1.81080122702270
 1  8.90747684488449  1.03015563206321 -0.00526656415642
 1  8.75818364116412 -0.53922227762776  0.89081369997000
 1  10.40735244674467  0.02559732603260 -1.68510234083408
 1  9.60739723612361 -2.25018206250625 -2.13574853605361
 1  11.13966705140514 -2.34586109870987 -1.78064425042504
 1  9.89256673027303 -2.69317093969397 -0.32967505820582
 1  11.25209997219722  0.61702611011101  0.66014797819782
 1  11.38855926562656 -1.16131846994699  0.57599507250725
 1  12.96142187788779 -1.52435929732973 -1.09324765966597
 1  13.10012891889189  0.11110058905891 -1.61614997879788
 1  13.86251775497550  1.03578683418342  0.44630129062906
 1  14.23848993929393 -0.76384882218222  1.09662483218322
 1  15.57971036313631  0.32326218661866 -1.35646530603060
 1  15.50816281728173 -2.53115984188419  0.08608101050105
 1  15.12300983278328 -2.11325951955195 -1.50697841824182
 1  16.75946400500050 -1.76229015761576 -1.11259336813681
 1  16.14547975767577  1.45495456815682  0.77492091309131
 1  16.44609631163116 -0.08406480218022  1.58341127282728
 1  18.30003919581958 -0.74291125492549 -0.20573658125812
 1  18.11729181038104  0.93461471997200 -1.13469695359536
 1  18.21488017081708  2.41000289988999  0.96661176207621
 1  18.85179145654565  0.70828443974397  1.60536688828883
 1  20.66489655635563  0.32904934073407  0.04674242464246
 1  19.79373620692069  3.11218020292029 -0.99103937343734
 1  21.59096521042104  2.48312419031903 -1.17470872487249
 1  20.04836566976698  1.59394079637964 -1.92812323562356
 1  20.97051706700670  1.68487779157916  2.45372481408141
 1  22.29719435993599  2.16213474467447  1.06458072427243
 1  20.82178471107111  3.12686636283628  1.36584251545155

