%nproc=4
%Mem=2GB
# td=(NStates=1) CAM-B3LYP/6-31G(d,p) 

TD

0 1
12 -7.11144281358136  0.54556279697970  0.11618966756676
 6 -4.94707358845885 -1.93311542284228  0.53805944084408
 6 -4.68809811611161  2.88140246754675  1.07260071727173
 6 -9.36068065686569  3.18223062246225 -0.53351468446845
 6 -9.55660668826883 -1.66724689968997 -0.83340145514551
 7 -5.05552833443344  0.48223948444844  0.67766528692869
 6 -4.32230983628363 -0.75754637503750  0.86909881268127
 6 -2.97408837003700 -0.49277454955496  1.27657309850985
 6 -3.03660394959496  0.93474460696070  1.70646345274527
 6 -4.36971505820582  1.53732411281128  1.08073433463346
 6 -3.02929072007201  1.23955044234423  3.29981350745075
 6 -1.98530281118112 -0.68781279137914  0.12926225202520
 6 -0.48640689468947 -0.53573180458046  0.50898948184818
 6  0.47902728112811 -0.67313074517452 -0.62582423422342
 8  0.21839238893889 -1.14309571337134 -1.69820910121012
 8  1.83288031303130 -0.49508441524152 -0.19603382348235
 7 -7.01007861636164  2.57985939323932  0.21701685848585
 6 -5.97700483148315  3.31480243414341  0.73942192619262
 6 -6.33317130683068  4.68222885328533  0.81218898339834
 6 -7.66800739613961  4.78437832453245  0.53242014901490
 6 -8.08319887308731  3.40341063236324  0.00873121232123
 6 -5.46570235143514  5.83192428372837  1.30829735493549
 6 -8.55424463686369  6.00532560056006  0.34368439033903
 6 -8.10408960676068  7.25403148744874  0.18594433213321
 7 -9.15174020972097  0.65453193149315 -0.42635434073407
 6 -9.85098675767577  1.85687637023702 -0.64824994919492
 6 -11.19911465436544  1.53057404780478 -1.13761851145115
 6 -11.25926444714471  0.09465334263426 -1.21874114031403
 6 -9.94215409910991 -0.36816530463046 -0.91797110001000
 6 -12.27397563966397  2.53356563746375 -1.30747127802780
 6 -12.41598164386439 -0.71009207140714 -1.69273445064506
 6 -12.25220155215522 -0.90034391959196 -3.24214231963196
 7 -7.27420367246725 -1.40301966356636 -0.07332045074507
 6 -8.28961418371837 -2.24539047854785 -0.50815862176218
 6 -7.88954662216222 -3.57950213311331 -0.48255668466847
 6 -6.57464298629863 -3.59262357785779 -0.11310380248025
 6 -6.26493127132713 -2.19230538503850  0.05804742614261
 6 -8.63559390409041 -4.83485630453045 -0.95126467346735
 6 -5.42911944964496 -4.44098008330833  0.25125362526253
 8 -5.27070843264326 -5.57517017061706  0.15243127792779
 6 -4.19528293829383 -3.35248818291829  0.57903879587959
 6 -3.50981534573457 -3.77050313491349  1.84417559725973
 8 -3.67229088368837 -3.17803103590359  2.89227294259426
 8 -2.84276562446245 -4.83342149464946  1.75406349434943
 6 -2.29206184468447 -5.44424489378938  2.93261459845985
 6  2.75398917551755 -0.64863412111211 -1.24797017191719
 6  4.10643396579658 -0.33297714711471 -0.50719324802480
 6  5.14569817721772  0.39838316281628 -0.86198609880988
 6  5.07530494709471  1.17629216551655 -2.15856294739474
 6  6.42286874447445  0.49696850375038 -0.24705139133913
 6  7.70517825672567 -0.06996887878788 -0.97576724542454
 6  8.92868195059506 -0.00250998449845 -0.15267786198620
 6  10.21963285628563 -0.57041413971397 -0.83500989538954
 6  10.03896108230823 -2.07715705060506 -1.22238389988999
 6  11.42721383848385 -0.35082597319732  0.09474967366737
 6  12.75975314431443 -0.45669218511851 -0.61996253605361
 6  13.95368105590559 -0.13796055925593  0.33115032803280
 6  15.35384072807281 -0.10940355205521 -0.38485153545355
 6  15.71018512071207 -1.55453823962396 -0.75655293509351
 6  16.41895514951495  0.46079046514651  0.60579976467647
 6  17.75443114741474  0.70563868966897 -0.18147642754275
 6  18.89577497699770  1.35805765256526  0.66550891259126
 6  20.29243692349235  1.38503424802480  0.00588019161916
 6  20.24056428532853  2.24013966196620 -1.21506732813281
 6  21.23589146324633  1.93473784318432  1.03752045364536
 1 -4.14635489398940  3.59063744544454  1.57368188918892
 1 -10.00435418711871  3.87365494939494 -0.71752605520552
 1 -10.46219548134813 -2.35811586628663 -1.12031557905791
 1 -2.68480717141714 -1.19770943464346  2.10675791439144
 1 -2.29171880988099  1.48652714131413  1.37163152965297
 1 -2.02243596689669  0.90393588258826  3.61731194459446
 1 -3.18312309850985  2.23206266286629  3.54901946944695
 1 -3.75677665886589  0.70481484918492  3.83606749124913
 1 -2.24926745364536 -1.52793871427143 -0.49952493849385
 1 -2.04980918311831  0.08100019131913 -0.52718782038204
 1 -0.34920201420142  0.31302922642264  1.19169142104210
 1 -0.19607556125613 -1.20247322272227  1.24400727662766
 1 -5.15004717241724  6.38663383848385  0.38271005320532
 1 -6.11719638993899  6.57814761356136  1.65409009820982
 1 -4.63474670347035  5.45585075647565  1.88501217991799
 1 -9.65570306920692  5.99779271537154  0.32415025952595
 1 -8.96227686808681  8.03384197369737  0.42892348564857
 1 -7.06804184078408  7.28455902510251 -0.09893436403640
 1 -11.97416282908291  3.15238254355436 -2.23252955135514
 1 -13.10329554305430  2.17893353145315 -1.54178770247025
 1 -12.40585754715472  3.19951303670367 -0.34592609060906
 1 -12.31583411151115 -1.72248464666467 -1.32647285518552
 1 -13.46174217781778 -0.26214002700270 -1.52809016601660
 1 -13.10828129432943 -1.44226546574657 -3.54320731843184
 1 -12.25283545754576  0.00344161826183 -3.94839241424142
 1 -11.36372972057206 -1.34341728572857 -3.74442355785579
 1 -8.81122201810181 -4.56673952225223 -2.01758934033403
 1 -7.99355305630563 -5.58070817901790 -0.72861708980898
 1 -9.58894105990599 -4.95139192619262 -0.45294355055506
 1 -3.52659279127913 -3.53396498099810 -0.35652230523052
 1 -1.68510960096010 -4.68668704600460  3.67609429642964
 1 -3.26185137253725 -5.67879852225222  3.65766298839884
 1 -1.68544997149715 -6.18488266536654  2.41450815371537
 1  2.72808747984798 -1.57526721662166 -1.71546562286229
 1  2.41059275947595 -0.02574965656566 -2.08306032583258
 1  4.24469369366937 -1.00632863906391  0.30736311251125
 1  4.06109704600460  1.25445654195420 -2.95726906920692
 1  5.26203950235023  2.30135452565257 -2.08830318491849
 1  5.70044536733673  0.82286261646165 -2.95547684698470
 1  6.59733275657566  1.60032626032603 -0.08687118941894
 1  6.21998534653465  0.16758350945095  0.82790379747975
 1  7.41889563166317 -0.96019709140914 -1.42335646434643
 1  7.82976450745075  0.61706858335834 -1.82409255615562
 1  8.99347544474447  0.91146376287629  0.01402536503650
 1  8.72206002880288 -0.39793814921492  0.93957857645765
 1  10.46237794929493  0.03948871517152 -1.64025785638564
 1  8.81396789318932 -2.08761580588059 -1.59790475167517
 1  10.91655474017402 -2.50377689028903 -2.02569875587559
 1  10.28838631223122 -2.55008663126313 -0.19834192489249
 1  11.27858262046205  0.71899630713071  0.49664162756276
 1  11.39655006470647 -1.09088142624262  0.90285775877588
 1  12.91594733043304 -1.61151801320132 -0.86110444534453
 1  12.69385829182918  0.24086356535654 -1.53608197199720
 1  14.02555405860586  0.86670992649265  0.61251791229123
 1  13.92806889718972 -0.73967640494049  1.16129129882988
 1  15.10308270037004  0.50066992739274 -1.21885154465447
 1  15.67090909190919 -2.11609833573357  0.13594599699970
 1  15.25075260706071 -2.24539273287329 -1.56359407980798
 1  16.72582064066407 -1.69402333093309 -1.09982209100910
 1  16.21041625132513  1.46156522922292  0.97671109210921
 1  16.55994769676968 -0.22553894959496  1.49991292299230
 1  18.03601279317932 -0.38140510431043 -0.43037904550455
 1  17.46213629482948  1.05609686818682 -1.06552003590359
 1  18.55717440024002  2.32854475407541  0.99176427732773
 1  18.93224950235023  0.69573318461846  1.49268562016202
 1  20.53915398209821  0.26890332613261 -0.19120136973697
 1  19.55726255955596  3.18999798469847 -1.01079134863486
 1  21.16263237713772  2.38779465736574 -1.79327058105811
 1  19.68914974817482  1.64670607290729 -1.99964038733873
 1  21.36277629292929  1.28490779457946  1.85015445704570
 1  22.39620426092609  1.92757128832883  0.73334760096010
 1  20.90137266986699  2.89516319251925  1.43751968316832

