%nproc=4
%Mem=2GB
# td=(NStates=1) CAM-B3LYP/6-31G(d,p) 

TD

0 1
12 -7.12468413771377  0.60301854255426  0.09697774637464
 6 -4.91141002210221 -1.99861197249725  0.52015765066507
 6 -4.95843514981498  2.77068139543954  1.26350980818082
 6 -9.38253284208421  3.07137953735374 -0.56079741274127
 6 -9.52944397199720 -1.75428560356036 -1.00888900390039
 7 -5.11471425302530  0.44544580508051  0.73099061946195
 6 -4.41023862916292 -0.76655727612761  0.87754965776578
 6 -2.98978994019402 -0.37621289338934  1.21238667986799
 6 -3.01238152735274  1.11577270977098  1.67684049044905
 6 -4.43982206890689  1.53685406580658  1.28744500570057
 6 -2.90956874787479  1.11543803110311  3.18411193729373
 6 -1.98621290219022 -0.65738974907491  0.02583190899090
 6 -0.52713096709671 -0.69370760216022  0.60791937483748
 6  0.50918029642964 -0.81778521062106 -0.51849350115011
 8  0.27022757245725 -1.22385378917892 -1.61692097239724
 8  1.77003402840284 -0.52221712851285  0.01315709560956
 7 -7.23939154765477  2.68378978627863  0.40391554835484
 6 -6.17918504950495  3.36574752865287  0.87116510051005
 6 -6.53451144084408  4.74981561196120  0.90882864736474
 6 -7.84942553795380  4.84762464916492  0.39632653965397
 6 -8.19040959415942  3.46594688598860  0.05944628382838
 6 -5.67152293349335  5.83086417771777  1.46568309350935
 6 -8.68355756815682  6.09707477547755  0.36584660656066
 6 -8.21171036883688  7.29832591689169 -0.03716797909791
 7 -8.99220425612561  0.59182566086609 -0.55045675097510
 6 -9.88240989999000  1.82423310591059 -0.70057518171817
 6 -11.15391013391339  1.45824681508151 -1.11107585718572
 6 -11.19079760046005  0.13965784308431 -1.31783104930493
 6 -9.92542242594259 -0.35284377247725 -0.96461576447645
 6 -12.25812405450545  2.46859914081408 -1.30657118801880
 6 -12.41871191689169 -0.78785984818482 -1.71607678487849
 6 -12.43983031503150 -1.08694257945795 -3.16291439683968
 7 -7.25439169126913 -1.31675103670367 -0.20159327802780
 6 -8.22280750305030 -2.20610655015502 -0.53877168306831
 6 -7.84556222372237 -3.53948813171317 -0.60302873187319
 6 -6.51365688768877 -3.58125244074407 -0.15945843794379
 6 -6.23062784098410 -2.17762391689169  0.09621124252425
 6 -8.68843918861886 -4.69856267516752 -0.89575912291229
 6 -5.40225676337634 -4.38187417271727  0.15011351125113
 8 -5.20608196999700 -5.57237989158916  0.09299533433343
 6 -4.23665707570757 -3.36142907700770  0.52913380538054
 6 -3.61385574977498 -3.65542162676268  1.93339451915192
 8 -3.70198385298530 -3.09499273207321  2.99525324062406
 8 -2.67177852575258 -4.70998915141514  1.65626371437144
 6 -1.98189082758276 -5.06349681898190  2.85657699469947
 6  2.87432120872087 -0.67372663036304 -1.00973634853485
 6  4.20127344974498 -0.35770962036204 -0.28019054775478
 6  5.17260086748675  0.37026035053505 -0.91600150035004
 6  5.03494091069107  1.30217475377538 -2.08272536363636
 6  6.51386784438444  0.28185699259926 -0.17649433563356
 6  7.75251299019902 -0.09690157205721 -0.94115378407841
 6  9.08163724612461 -0.06386612011201 -0.13382597679768
 6  10.30090098309831 -0.57519461776178 -0.94867126152615
 6  10.19935712191219 -1.91131046594659 -1.36167782928293
 6  11.53235435253525 -0.30043093369337 -0.00316011731173
 6  12.83301047004700 -0.61254777067707 -0.72875341514151
 6  14.01217690549055 -0.20723748694869  0.05483269626963
 6  15.28323366736674 -0.20239285098510 -0.60050310061006
 6  15.73958806100610 -1.75581836763676 -0.95620290009001
 6  16.35172842684268  0.55282966906691  0.27533671837184
 6  17.84137984228423  0.60584871067107 -0.22448072797280
 6  18.82293769326933  1.28806065286529  0.73511587328733
 6  20.19160684048405  1.34388013261326  0.29598920252025
 6  20.40098032693269  2.14170981898190 -1.08426424782478
 6  21.13195106920692  2.06305067446745  1.31900860246025
 1 -4.12928318681868  3.43033141484148  1.50023454445445
 1 -10.01357510921092  4.02158974287429 -0.88438274087409
 1 -10.23068233003300 -2.45177523222322 -1.07441098859886
 1 -2.57264595529553 -0.88078774247425  2.01957919651965
 1 -2.39291892989299  1.79000748934894  1.21141550805081
 1 -2.02403612691269  0.94939042804280  3.40475068846885
 1 -3.09008379457946  2.20953040964096  3.49799436693669
 1 -3.67524850605060  0.81034540224022  3.75742962746275
 1 -2.11213374027403 -1.60040596099610 -0.53388837483748
 1 -1.94286848904890  0.27899999129913 -0.61719682128213
 1 -0.43200029402940  0.31353927742774  1.29178143004300
 1 -0.53030898459846 -1.59129210461046  1.28298117401740
 1 -5.16778894659466  6.42869804490449  0.60285206740674
 1 -6.37224189448945  6.53224302310231  1.88149283848385
 1 -4.82478570737074  5.33817898929893  1.99245292399240
 1 -9.73902140104010  6.27820075617562  0.41996984148415
 1 -8.97941858225822  8.23380196969697 -0.34043345004500
 1 -7.22309734633463  7.50714128332833 -0.02462693329333
 1 -11.95688110091009  3.37174447974797 -2.07812411081108
 1 -13.25232044554455  1.82893853195320 -1.60054357805781
 1 -12.61254821622162  2.96537962336234 -0.44160565856586
 1 -12.52712524062406 -1.62558495669567 -1.13813402130213
 1 -13.39355535913591 -0.33276708970897 -1.51537889488949
 1 -13.30839130533053 -1.76669790899090 -3.47463046074608
 1 -12.53441361536154 -0.04857358325833 -3.55449302430243
 1 -11.53568691629163 -1.34514745874587 -3.33339245474547
 1 -9.31328222412241 -4.85986883518352 -1.89545712711271
 1 -8.13028672967297 -5.57265737393739 -0.77083131123112
 1 -9.65746791259126 -4.46520330733073 -0.32216047224722
 1 -3.32530266226623 -3.40587217171717 -0.03738039103910
 1 -1.72228331833183 -4.00442882018202  3.34600128712871
 1 -2.61537672507251 -5.66242688508851  3.67971519361936
 1 -1.03902532903290 -5.66060023712371  2.61337804070407
 1  2.65016968806881 -1.79353904380438 -1.51587566386639
 1  2.52345404560456  0.03268618701870 -1.80727274707471
 1  4.57815704000400 -1.09719772597260  0.67466984318432
 1  4.16171710801080  1.25248634493449 -2.54854819711971
 1  5.38722202060206  2.35069946014602 -1.73435779037904
 1  5.94556987978798  1.01392172237224 -3.19651095039504
 1  6.66779980328033  1.38026425412541  0.15825332303230
 1  6.68337168516852 -0.24676792569257  0.70215122222222
 1  7.66120986308631 -1.32026309800980 -1.24001813051305
 1  7.85372690369037  0.58495537203720 -1.81163131003100
 1  9.17020311751175  1.03865648214821  0.05034899739974
 1  8.99459728252825 -0.59461781718172  0.74956957555756
 1  10.57187889938994 -0.04882011571157 -1.72420625122512
 1  9.29950644704470 -2.23257030133013 -1.77803276447645
 1  11.10634371907191 -2.24084059665967 -1.78359454545455
 1  10.02269974357436 -2.67659928252825 -0.45407749844984
 1  11.51040580278028  0.81591599909991  0.26296826022602
 1  11.37345775547555 -0.73551588968897  0.96304377737774
 1  13.07851358705870 -1.69846670807081 -0.83678201310131
 1  12.82351125712571 -0.15597611861186 -1.82087045084508
 1  13.82953445664567  0.77834108960896  0.51661832233223
 1  14.13090918121812 -0.77391982928293  0.79567473717372
 1  15.19722211431143  0.35821568196820 -1.60812047154715
 1  16.03122512351235 -2.54878160406041 -0.24161175877588
 1  14.90360789258926 -2.47365555915592 -1.57530525092509
 1  16.67220527912792 -1.71965589418942 -1.55889799859986
 1  15.82005721542154  1.54143321602160  0.44179760076008
 1  16.32321402340234  0.12100570487049  1.36843977567757
 1  18.32216140804081 -0.35200216401640 -0.17629363696370
 1  17.96432651385139  0.86844810331033 -1.33667715161516
 1  18.39538822162216  2.37537943754375  1.03465856675668
 1  18.86886316371637  0.70439405070507  1.68176452805281
 1  20.38426849354935  0.44393082888289  0.02882063246325
 1  19.78978581188119  3.04618360326033 -1.17550782028203
 1  21.41762787668767  2.31911778967897 -1.48078933293329
 1  19.93686451965196  1.58637003930393 -1.87316774007401
 1  21.34891490679068  1.33569287308731  2.21669111071107
 1  22.20828546904691  2.36770530173017  0.94210847704771
 1  20.64939747234724  3.02549622582258  1.71656758795880

