%nproc=4
%Mem=2GB
# td=(NStates=1) CAM-B3LYP/6-31G(d,p) 

TD

0 1
12 -7.24022569186919  0.54945318601860  0.15487353595360
 6 -4.82290117121712 -1.97393950525053  0.48977461236124
 6 -4.86247555385539  2.87528185548555  1.20980443764376
 6 -9.42200678947895  3.09529192859286 -0.31835316831683
 6 -9.54189521712171 -1.77305748074807 -0.84927304230423
 7 -5.16855963756376  0.45855711621162  0.79900742114211
 6 -4.30666827212721 -0.68143876427643  0.79820172297230
 6 -2.89764072527253 -0.33367863996400  1.14075951715172
 6 -3.02941323052305  1.14574570707071  1.67862066846685
 6 -4.38404649134914  1.50571095149515  1.16704296549655
 6 -2.65880367136714  1.40134662196220  3.06907043314331
 6 -1.91013529442944 -0.58548255835584  0.10069939573957
 6 -0.51927018101810 -0.26178440984098  0.53118170107011
 6  0.51712109050905 -0.60812424452445 -0.48209986178618
 8  0.22395294499450 -1.07507891169117 -1.53178245854585
 8  1.71074809980998 -0.30260516731673 -0.14835905600560
 7 -7.12019962846285  2.58340974827483  0.35133028982898
 6 -6.04463159415942  3.40292124602460  0.79523750775078
 6 -6.45477346704670  4.79777040744074  0.80648841334133
 6 -7.75693628902890  4.82452233893389  0.35789269626963
 6 -8.21610216341634  3.48481877317732  0.05535587478748
 6 -5.58294407560756  5.84715580688069  1.25730225542554
 6 -8.58317753015302  6.10255532353235  0.34671469336934
 6 -8.21079027682768  7.29077516181618  0.18243398109811
 7 -9.12927796349635  0.65807228552855 -0.46654836013601
 6 -9.93209486848685  1.79827050965097 -0.61713683788379
 6 -11.22911765466547  1.46771776217622 -1.06972172177218
 6 -11.25249377007701  0.14457833513351 -1.19501876807681
 6 -9.96398628232823 -0.44618310641064 -0.78341764466447
 6 -12.39209745184518  2.47331961286129 -1.34368489938994
 6 -12.36654670037004 -0.61662272447245 -1.74923010021002
 6 -12.18153448544854 -1.07225111031103 -3.22545065046505
 7 -7.21794804690469 -1.45733509510951 -0.08294141284128
 6 -8.25554077637764 -2.19136507600760 -0.52281008690869
 6 -7.74161182868287 -3.62887707060706 -0.67560598959896
 6 -6.42327784978498 -3.67150146564656 -0.26502899499950
 6 -6.16693147134713 -2.23672982748275  0.04996661806181
 6 -8.50665100980098 -4.93563638253825 -0.75806535353535
 6 -5.30206674437444 -4.41035702100210 -0.03464496459646
 8 -5.02919428122812 -5.61977463106311 -0.14514848004800
 6 -4.12562597259726 -3.34466740084008  0.48284917691769
 6 -3.57093145734573 -3.61754783938394  1.87479865956596
 8 -3.86809046364636 -3.20458369116912  2.92865658095810
 8 -2.73828517641764 -4.65577372987299  1.77653574157416
 6 -2.23975661416142 -5.24864533383338  2.97013835083508
 6  2.76076985358536 -0.74478373607361 -1.14448982388239
 6  4.08215153755376 -0.54319816921692 -0.45078760746075
 6  5.17854146154615  0.11378470297030 -0.93634353455346
 6  5.11013843044304  1.03325786208621 -2.16872396349635
 6  6.40790724832483  0.30043885078508 -0.07647433363336
 6  7.64170190909091 -0.15825770767077 -0.90751041974197
 6  8.93518260066007 -0.16977671117112 -0.04720731493149
 6  10.15558645164517 -0.55288238653865 -0.87261365576558
 6  10.09894708090809 -2.01643097799780 -1.40993265476548
 6  11.38505962306231 -0.32829371997200  0.06771697039704
 6  12.86960412941294 -0.58015453135314 -0.60458099789979
 6  13.96437212501250 -0.11305806900690  0.21366857985799
 6  15.27581292529253 -0.15488810051005 -0.52158520882088
 6  15.60643474567457 -1.70047283308331 -0.91753903370337
 6  16.38892214621462  0.38577296339634  0.40076926162616
 6  17.76094179847985  0.66330445624562 -0.36512479237924
 6  18.77527292679268  1.33084493129313  0.60178253995400
 6  20.24778245804580  1.48170391499150  0.15126473007301
 6  20.41579180808081  2.29715536353635 -1.04905072647265
 6  21.16579445354536  1.83946831623162  1.34655135673567
 1 -4.25009526802680  3.61975035673567  1.57684220522052
 1 -10.14099785148515  3.75105268916892 -0.35411971457146
 1 -10.20764002580258 -2.64855491019102 -1.28218176567657
 1 -2.45749444014401 -0.94631429512951  2.30420765936594
 1 -2.10976061406141  1.47028551715172  1.05448981548155
 1 -1.58424214751475  0.71396688568857  3.28041825522552
 1 -2.37499228542854  2.62571202780278  3.12416698419842
 1 -3.43402438363836  0.99743411111111  3.78535241974197
 1 -1.96342886978698 -1.62081800220022 -0.42050703670367
 1 -2.06425062726273  0.22288437973797 -0.92686778837884
 1 -0.51001809580958  0.74589251275128  0.74539679157916
 1 -0.18851480518052 -0.91846482188219  1.42740561646165
 1 -4.61014318201820  6.26080125522552  0.56683846604660
 1 -5.97118178847885  6.79130892969297  1.86340102930293
 1 -4.94051728052805  5.69896506790679  2.21373505220522
 1 -9.76375387428743  5.94457739383938  0.50749859435944
 1 -8.85392603300330  8.20464905440544 -0.06544595129513
 1 -7.19959499609961  7.62483305250525  0.04998052745275
 1 -12.09782519531953  3.20044735003500 -2.29196549494949
 1 -13.38858407190719  1.93425906400640 -1.53577710141014
 1 -12.53837079847985  3.24181726712671 -0.43815531353135
 1 -12.41321384948495 -1.63299569776978 -1.11694190209021
 1 -13.21919792339234 -0.10202401540154 -1.41366872387239
 1 -13.19702016821682 -1.59710094929493 -3.68758175587559
 1 -12.08106828082808 -0.16427515341534 -3.81816939193919
 1 -11.46863021062106 -1.76234917891789 -3.50619973547355
 1 -9.30092098799880 -5.07539038733873 -1.61806938833883
 1 -7.74213791479148 -5.68527863606361 -0.52219644774477
 1 -9.33738590439044 -5.04253104010401  0.07567931173117
 1 -3.60296042804280 -3.45111669616962 -0.36638329132913
 1 -1.72407349734973 -4.29083746104610  3.51209789678968
 1 -2.89967515491549 -5.71683232563256  3.58369559165917
 1 -1.33831525802580 -5.80779495659566  2.76556325922592
 1  2.82479715081508 -1.94624431433143 -1.38422249854985
 1  2.75817751795180 -0.16883396499650 -2.17660968076808
 1  4.21545076937694 -0.97183518971897  0.48573094929493
 1  4.01499243554355  1.21710280658066 -2.58889223152315
 1  5.65298859725973  2.04799919011901 -2.11646600120012
 1  5.47456277907791  0.56362669286929 -3.15763706300630
 1  6.49206222952295  1.23733996169617  0.56546404410441
 1  6.33829717771777 -0.24740798969897  0.73600460756076
 1  7.41376511861186 -1.29101017271727 -1.26450057875788
 1  7.91743327432743  0.47898477497750 -1.76189633653365
 1  9.16460255745574  0.83404602110211  0.42527649014901
 1  8.88784660746075 -0.73420177557756  0.95400001860186
 1  10.20898260976098  0.19814458075808 -1.82262609320932
 1  9.22564906130613 -2.07673471777178 -1.99204416561656
 1  10.87791087578758 -2.14440095269527 -1.87355354135414
 1  9.96806428002800 -2.70429205180518 -0.55376746744674
 1  11.40264502670267  0.78769317681768  0.24308627202720
 1  11.17913832353235 -0.79275161326133  1.09147662066207
 1  12.84121985768577 -1.92856971837184 -0.75676401130113
 1  12.83011191719172 -0.28953947494750 -1.54530289408941
 1  13.76039754295430  0.94593784928493  0.50255691619162
 1  14.03898998929893 -0.76808924622462  1.06542171187119
 1  15.36352874497450  0.44381424182418 -1.26813647314731
 1  15.57024902590259 -2.22523924982498  0.02583498589859
 1  14.69089662146215 -2.17524571817182 -1.54108182858286
 1  16.47897595619562 -1.80923485208521 -1.38281038983898
 1  16.05226043574357  1.40903997669767  0.81082450345035
 1  16.68891059305931 -0.38644504020402  1.29049198089809
 1  17.97718691059106 -0.11397836163616 -0.65569157675768
 1  17.46586666786679  1.27467872637264 -1.35334881878188
 1  18.17757644044404  2.17679957955796  0.75398049894989
 1  18.80471674907491  0.68242185348535  1.66114246584658
 1  20.46347641434143  0.38621505730573  0.04405215561556
 1  19.86527336063606  3.32076106100610 -1.08539880938094
 1  21.30977709160916  2.37197307520752 -1.41653290729073
 1  19.93255408860886  1.95714711701170 -1.85169559285929
 1  21.14984499979998  1.25941524532453  2.37098654025403
 1  22.13726836733673  2.01255978717872  1.05182944914491
 1  20.80873340594059  2.93468714491449  1.68274420562056

