%nproc=4
%Mem=2GB
# td=(NStates=1) CAM-B3LYP/6-31G(d,p) 

TD

0 1
12 -7.20005167446745  0.62904114481448  0.25667371597160
 6 -4.92464134523452 -1.97188930023002  0.51500713561356
 6 -4.81772107840784  2.81030535783578  1.28731218841884
 6 -9.41065565436543  3.14417681708171 -0.36552788578858
 6 -9.57154818241824 -1.67930810581058 -0.85389350435044
 7 -5.09195197679768  0.39810107060706  0.85033255365537
 6 -4.35372297759776 -0.72210283068307  0.86820872367237
 6 -2.94493545474547 -0.39873514561456  1.23265870707071
 6 -3.00793108230823  1.09156028852885  1.73231603800380
 6 -4.31501958865887  1.53364374477448  1.29474573577358
 6 -2.81645943694369  1.30077656495650  3.27814134023402
 6 -1.94248852975298 -0.68906291639164  0.05433475927593
 6 -0.48392664666467 -0.61126935833583  0.59302788568857
 6  0.48487786618662 -0.78432186428643 -0.60698235003500
 8  0.14928547824783 -1.00804220802080 -1.69108838913891
 8  1.73416044104410 -0.59424433123312 -0.22009622972297
 7 -7.11183879237924  2.62389379667967  0.37487264406441
 6 -6.01760889188919  3.34207516141614  0.79454743874387
 6 -6.38742673237324  4.73162379277928  0.85065282978298
 6 -7.73651424682468  4.83938382508251  0.39872677967797
 6 -8.18044859805980  3.52252254355436  0.21283162236224
 6 -5.47697347854785  5.88038913021302  1.27869439463946
 6 -8.50995020742074  6.01701676967697  0.31059108100810
 6 -8.23758295609561  7.30951703600360  0.22749848754875
 7 -9.10826586228623  0.68512499079908 -0.61404310961096
 6 -9.74662632163216  1.86528721132113 -0.73772889708971
 6 -11.06993173607361  1.49680067046705 -1.20551530113011
 6 -11.18080660136014  0.20319419671967 -1.36932619881988
 6 -9.92036191989199 -0.40134862296230 -0.94160346324632
 6 -12.23384162626263  2.52020430133013 -1.62657318821882
 6 -12.24217426312631 -0.65665672787279 -1.81143632083208
 6 -12.22426875887589 -0.99583346854685 -3.39065717111711
 7 -7.30387663976398 -1.40433979557956  0.07669455075508
 6 -8.24080930323032 -2.18478441794179 -0.41670947684768
 6 -7.91252892039204 -3.55479966286629 -0.51732016101610
 6 -6.61177669966997 -3.62452676817682  0.04323183108311
 6 -6.28583336153615 -2.21208736323632  0.24704632603260
 6 -8.66899724442444 -4.79679249814982 -0.92274182118212
 6 -5.43329986768677 -4.36462244754475  0.23740224012401
 8 -5.16188755055505 -5.57366001960196  0.09188522332233
 6 -4.32201561156116 -3.31340427452745  0.54338523052305
 6 -3.54579894409441 -3.67152323692369  1.81949312901290
 8 -3.79262291689169 -3.28522175497550  2.96835055035504
 8 -2.65280662856286 -4.69619777227723  1.52315040304030
 6 -2.20959359785979 -5.32633310261026  2.80422175917592
 6  2.74015779237924 -0.71039029672967 -1.19638501340134
 6  4.07538086048605 -0.45295914531453 -0.46483901260126
 6  5.13266687408741  0.21559488398840 -1.07424732493249
 6  5.03479089568957  0.99578411471147 -2.32160925202520
 6  6.43272973057306  0.33465227212721 -0.23404009020902
 6  7.66726446534653 -0.22367424932493 -0.92331199989999
 6  8.92159124152415 -0.11918165166517 -0.10594318851885
 6  10.20764165716572 -0.69831692999300 -0.85378177257726
 6  10.01900908710871 -2.25939527442744 -1.21525318681868
 6  11.44418553565357 -0.36163705430543 -0.04307410871087
 6  12.84368153715372 -0.53177969386939 -0.71018155795580
 6  14.00245593339334 -0.10190695389539  0.21443865686569
 6  15.28976432043204 -0.12763537523752 -0.43393644394439
 6  15.75156925912591 -1.61954474027403 -0.76743402320232
 6  16.40245349934994  0.50215460156016  0.43843302800280
 6  17.80751645594560  0.75760388618862 -0.27106538643864
 6  18.79280467996800  1.33300514731473  0.72107446914691
 6  20.24733241304130  1.56349209380938  0.07302690629063
 6  20.38107833673367  2.37406305430543 -1.16881270267027
 6  21.22205007910791  2.14827919731973  1.23861056265627
 1 -4.09155941444144  3.63274165586559  1.69436395739574
 1 -10.18896264796480  4.00556814071407 -0.73394769736974
 1 -10.29622888468847 -2.48905896059606 -1.14758830633063
 1 -2.67119581028103 -1.15018468216822  1.91675891449145
 1 -2.18884852285229  1.62332082068207  1.22295666216622
 1 -1.69720344364436  1.12217770677068  3.38805901930193
 1 -3.14225901210121  2.18157761436144  3.49724429192919
 1 -3.44035501670167  0.66687105480548  3.96110999549955
 1 -2.08435096199620 -1.78160408080808 -0.41910689668967
 1 -2.06503070527053  0.06493858515852 -0.66454155575558
 1 -0.35530262426243  0.23417134063406  1.29184143604360
 1 -0.19445539923992 -1.65261823722372  1.41153402930293
 1 -4.96255842354235  6.54995017011701  0.49499128132813
 1 -6.11469613991399  6.46625642444244  2.01208589778978
 1 -4.67472070087009  5.38511368276828  2.03098677737774
 1 -9.56418391729173  5.89257219331933  0.22870071457146
 1 -9.09441008140814  8.05118370787079  0.06906750005000
 1 -7.20996603320332  7.79476004520452  0.23252878227823
 1 -12.08694410721072  2.91265857115712 -2.81260755915592
 1 -13.43349856335633  2.25037067516752 -1.73688721242124
 1 -12.36712367376738  3.26964004940494 -0.82729422742274
 1 -12.36159868796880 -1.59038143634363 -1.31800200810081
 1 -13.29772577617762 -0.10403421642164 -1.81254861186119
 1 -13.03413387958796 -1.89933117231723 -3.74004700240024
 1 -12.34976515051505 -0.00529925582558 -3.89673724872487
 1 -11.13640698829883 -1.45313825782578 -3.37119623512351
 1 -9.00726162206221 -4.63134598289829 -1.85112269366937
 1 -8.30708440944094 -5.73816392459246 -0.63561778987899
 1 -9.41311347714771 -4.93737052405240 -0.23843209940994
 1 -3.58653878587859 -3.36721830633063 -0.26829348234824
 1 -1.37448853885388 -4.82595097239724  3.23309999699970
 1 -3.05328051545155 -5.52199284168417  3.52725994809481
 1 -1.77534896139614 -6.42291646874687  2.46049275217522
 1  2.83364803590359 -1.95162485238524 -1.46194027032703
 1  2.63455515571557 -0.17944502610261 -1.88383040284028
 1  4.17581680598060 -0.91062906910691  0.49539191539154
 1  4.16500743704370  1.03626472277228 -2.60788413071307
 1  5.74138743714371  2.03483787398740 -2.07447180178018
 1  5.75322064486449  0.55247557775778 -3.02295359465947
 1  6.44430745404540  1.36006223392339 -0.13454595689569
 1  6.36328967696770 -0.17734098299830  0.70615162226223
 1  7.35050879297930 -1.16909798149815 -1.11704583328333
 1  7.60542207320732  0.20784766126613 -2.03508365526553
 1  9.30192628982898  1.01642425892589  0.20019398189819
 1  8.92324014681468 -0.82899125452545  0.73849846844684
 1  10.14627633913391 -0.29063429712971 -1.96293012361236
 1  9.24281077747775 -2.13490053435344 -1.89523448464846
 1  10.85249833453345 -2.83099961256126 -1.79250543654366
 1  9.73381085468547 -2.94477610021002 -0.37434952565256
 1  11.40949571177118  0.70523493099310  0.42179414281428
 1  11.24121453115312 -0.95422776087609  0.82752022502250
 1  12.78870460616062 -1.66387324872487 -0.99119745464546
 1  12.78220712671267  0.03713319231923 -1.64938330213021
 1  13.77464896809681  0.99725298079808  0.55451211171117
 1  14.08519460976098 -0.78047048434843  1.27942311201120
 1  15.29295168726873  0.49515937633763 -1.39119877937794
 1  15.97692969396940 -2.12265899179918  0.05275767816782
 1  14.89505703750375 -2.03295148874887 -1.30216793719372
 1  16.59973803240324 -1.71617554615462 -1.39343145194519
 1  15.96984219391939  1.49253832653265  0.91526494749475
 1  16.62416411841184 -0.30762715841584  1.38201113281328
 1  18.14895408730873 -0.32322928672867 -0.52041804940494
 1  17.78128821002100  1.35439669816982 -1.16550003390339
 1  18.66587527032703  2.59001090069007  0.80418551945195
 1  19.06669294669467  0.88339195049505  1.76974332593259
 1  20.57898796549655  0.38566500230023  0.09478722912291
 1  20.22583941724173  3.43884286918692 -0.85779604910491
 1  21.49970608450845  2.31051692959296 -1.38292954695470
 1  19.45038587178718  2.02540394269427 -1.98156858015802
 1  21.40891090639064  1.36880618441844  2.02272171377138
 1  22.24561920242024  2.64392292349235  0.70643490969097
 1  20.62252478507851  2.98854253045305  1.55787171837184

