%nproc=4
%Mem=2GB
# td=(NStates=1) CAM-B3LYP/6-31G(d,p) 

TD

0 1
12 -7.14089575887589  0.62305054575458  0.03821186978698
 6 -4.87383626472647 -1.95279739103910  0.61092672757276
 6 -4.82502180848085  2.81389571687169  1.17397085428543
 6 -9.44841943074307  3.03165556495650 -0.32575390839084
 6 -9.54943597119712 -1.72022219721972 -0.86274438943894
 7 -5.04002678427843  0.34994625512551  0.65482300270027
 6 -4.35336294159416 -0.72263288368837  0.80040194299430
 6 -2.94988594979498 -0.40234550665066  1.26918235943594
 6 -3.00898118731873  1.04636576907691  1.67909071547155
 6 -4.38891697839784  1.45853623402340  1.10191645284528
 6 -2.99961775277528  1.25882236953695  3.17052057815782
 6 -1.90307458835884 -0.70172418251825  0.10915024082408
 6 -0.44902315631563 -0.47953618501850  0.61692027492749
 6  0.57860723912391 -0.66367980008001 -0.54481613341334
 8  0.28201875157516 -0.86037744154415 -1.72368164846485
 8  1.73727075207521 -0.50120502730273 -0.09585380548055
 7 -7.10770837933793  2.64748615591559  0.36381153795380
 6 -6.09871700270027  3.36015696959696  0.86418440244024
 6 -6.53759174887489  4.68874950535053  0.99521728622862
 6 -7.81000159555956  4.79177906460646  0.46317322432243
 6 -8.24658521172117  3.42566285758576  0.17180751995200
 6 -5.64548032923292  5.82510360166017  1.44514103930393
 6 -8.61962117451745  5.97247231523152  0.26412643454345
 6 -8.34343354115411  7.24272035633563 -0.18050231253125
 7 -9.08395343104310  0.64768124642464 -0.46825853115312
 6 -9.87311897089709  1.75966664926493 -0.68341346554655
 6 -11.23278802170217  1.42453344374437 -1.13313806340634
 6 -11.21648016871687  0.14807868516852 -1.26449571577158
 6 -9.93512339603960 -0.36471495959596 -0.95003430633063
 6 -12.37779602170217  2.43624590549055 -1.33685421632163
 6 -12.35324537023702 -0.71243230543054 -1.81165634283428
 6 -12.29982631463146 -0.78781266646665 -3.32595070047005
 7 -7.15507175927593 -1.42564192579258 -0.10328344704470
 6 -8.25114033633363 -2.15878181768177 -0.49770757665767
 6 -7.88470613811381 -3.54944912781278 -0.64670309930993
 6 -6.50554607660766 -3.56269058455846 -0.15826831893189
 6 -6.17896267446745 -2.23123927842784  0.15787740914091
 6 -8.59838018271827 -4.75637845674567 -0.96266581358136
 6 -5.26221275897590 -4.34527051235124  0.07136563646365
 8 -5.03114447624762 -5.57003965756576  0.00037607240724
 6 -4.17280069006901 -3.30690362446245  0.57004789678968
 6 -3.56397076127613 -3.67465354995500  1.91872305200520
 8 -3.70194384898490 -3.08552178497850  2.96834054935494
 8 -2.68604995289529 -4.73284143664366  1.79705779377938
 6 -2.20406304480448 -5.09273974327433  3.11048238523852
 6  2.82269604620462 -0.69156841454145 -1.12089746464646
 6  4.12275559795980 -0.49413326272627 -0.33764629332933
 6  5.07549115651565  0.29118244274427 -0.81964186438644
 6  5.14556197279728  1.19119365566557 -2.08257534863486
 6  6.41330778837884  0.36707551445145 -0.08030471667167
 6  7.60664840374037 -0.09070095199520 -0.95520518921892
 6  8.91875095749575 -0.21183091659166 -0.07197979217922
 6  10.26067696069607 -0.67903500180018 -0.86698309270927
 6  10.18664585078508 -2.10238957385739 -1.28203986548655
 6  11.42389350645064 -0.42942383298330  0.07496769546955
 6  12.77108427742774 -0.60862737863786 -0.66595713551355
 6  13.96068175597560 -0.24189095229523  0.18183539653965
 6  15.37163250725072 -0.19349196089609 -0.55400845114511
 6  15.72227632983298 -1.71406419221922 -0.97580486028603
 6  16.43661691569157  0.51197558365837  0.34796398109811
 6  17.65636134043405  0.66459458525853 -0.27411569146915
 6  18.78743414291429  1.31362320912091  0.75101746344634
 6  20.21606928672867  1.38961470607061  0.15426503010301
 6  20.30423065196520  2.34500014801480 -1.17389321072107
 6  21.16637451155115  1.93669803920392  1.18152485408541
 1 -4.11036129462946  3.57785616731673  1.83854837583758
 1 -10.05610936263626  3.91308889278928 -0.49558386098610
 1 -10.30654991679168 -2.49387944264426 -1.17958150565056
 1 -2.72921161186119 -1.08461812551255  2.01813905250525
 1 -2.10967060506051  1.38420690929093  1.17685205170517
 1 -2.12351607490749  0.61417690669067  3.42694290769077
 1 -2.98956374257426  2.29987944454445  3.67944251175118
 1 -3.85400638183818  0.60999536723672  3.79662354685469
 1 -2.00195272217222 -1.82414833523352 -0.16478146414641
 1 -2.12186638883888 -0.13533144184418 -0.82763786538654
 1 -0.31680877487749  0.48543646714672  1.03329558145815
 1 -0.11089704340434 -1.01676465186519  1.39038191409141
 1 -4.85549771747175  6.38669384448445  0.74524630683068
 1 -6.31507617791779  6.69125892469247  1.59527421662166
 1 -5.17761098989899  5.62155732713271  2.39918359705971
 1 -9.77702520142014  5.90206314241424  0.44984282878288
 1 -9.22501314171417  7.99621821132113 -0.40561996869687
 1 -7.39345438203820  7.63260382958296 -0.31088555915592
 1 -11.96611202400240  3.17213451875188 -2.06215251365137
 1 -13.26693190669067  2.03709934803480 -1.75177870157016
 1 -12.73589055045505  2.82141522692269 -0.33792529052905
 1 -12.45446797489749 -1.52048444664466 -1.23037324522452
 1 -13.36773277687769 -0.04053786678668 -1.62428978597860
 1 -13.24025449164916 -1.28714995419542 -3.74628762646265
 1 -12.03965413941394  0.22283355745575 -3.82764033903390
 1 -11.45655900350035 -1.41781472547255 -3.61824093959396
 1 -8.91087198309831 -4.80308315661566 -2.06835441684168
 1 -8.06536023702370 -5.71325143334333 -0.93927815591559
 1 -9.39815198099810 -5.16810359735974 -0.35612386858686
 1 -3.37648778077808 -3.25172675717572 -0.26262291529153
 1 -1.42445353535353 -4.22626100340034  3.21087777477748
 1 -2.99011419881988 -5.47257790019002  3.92844006610661
 1 -1.51102252875288 -5.95959013611361  2.94035073797380
 1  2.83224789588959 -1.82907259715972 -1.57141121742174
 1  2.85247694789479  0.06522944134413 -1.80647266706671
 1  4.21188041234123 -1.12632063826383  0.47057943414341
 1  4.19801073737374  1.30007110341034 -2.34993833613361
 1  5.65163846224623  2.19178356855686 -1.86489084368437
 1  5.76809213201320  0.92689301950195 -2.79724102340234
 1  6.56662968626863  1.46725295299530  0.13492098979898
 1  6.32693604160416 -0.17375062396240  0.80532153925393
 1  7.39872361446145 -0.95497656935694 -1.58649277797780
 1  7.97232876387639  0.52867974447445 -1.77995814271427
 1  8.93919001620162  0.82127474397440  0.39472343484348
 1  8.86865468826883 -0.80413876927693  0.83660827942794
 1  10.35342705420542  0.20194496079608 -1.71347517811781
 1  9.21363786018602 -2.43002004630463 -1.80678563976398
 1  11.10561364606461 -2.31617813041304 -1.99866605260526
 1  10.24297177077708 -2.78156977957796 -0.48635072577258
 1  11.45349011121112  0.71174558205821  0.42727469086909
 1  11.28825923562356 -1.04044638273827  0.88103557655766
 1  12.98409414511451 -1.47751461286129 -0.98444677957796
 1  12.68411731773177 -0.28438895989599 -1.70016838063806
 1  13.93198470167017  0.76198945444544  0.45310197069707
 1  14.14218030833083 -0.84260669796980  1.12390756045605
 1  15.20770316241624  0.44465432583258 -1.46853651315131
 1  15.58249025002500 -2.29394612051205  0.02094449684968
 1  15.02784031583158 -1.99455764936494 -1.78118583898390
 1  16.72203026162617 -1.65240916951695 -1.43893600240024
 1  16.22202741244124  1.49602867556756  0.49799322032203
 1  16.61117281928193 -0.05966236193619  1.33233616531653
 1  18.08643783568357 -0.27524448824882 -0.74982098969897
 1  17.40653073427343  1.31980323882388 -1.06537002090209
 1  18.35819450225022  2.24921682128213  1.07782288318832
 1  18.74701097849785  0.60413402470247  1.61946829842984
 1  20.62674274097409  0.50133656945695 -0.32182443204320
 1  19.81477831113111  3.33189217411741 -0.92650291979198
 1  21.32187830173017  2.39700557845785 -1.55759701370137
 1  19.80543137633763  1.87421882418242 -2.07250767406741
 1  21.17154717001700  1.28860816461646  2.15604504610461
 1  22.19777441794179  1.69027755895590  0.54482874907491
 1  21.18762129472947  2.97680135633563  1.51746767796780

