%nproc=4
%Mem=2GB
# td=(NStates=1) CAM-B3LYP/6-31G(d,p) 

TD

0 1
12 -7.17948961826183  0.59454769546955  0.11444949354936
 6 -4.80077895899590 -1.92423453475348  0.49371500640064
 6 -4.82098140444044  2.84608893619362  1.16604006120612
 6 -9.49186377517752  3.03043544294429 -0.08260959395940
 6 -9.49706073367337 -1.80993116811681 -0.92252036703670
 7 -5.12164494609461  0.46797805830583  0.72218973937394
 6 -4.32332993829383 -0.67338795919592  0.79543144594459
 6 -2.95702666386639 -0.32425769786979  1.20814625582558
 6 -3.11502179137914  1.10986211871187  1.64344715111511
 6 -4.43664175087509  1.53078345874588  1.14446070727073
 6 -2.83774156515652  1.30875736303630  3.18853237933793
 6 -1.89689397029703 -0.57152116221622  0.08458778457846
 6 -0.40522877687769 -0.48005623702370  0.53720230313031
 6  0.46686606500650 -0.57274070617062 -0.67958961076108
 8  0.20453100280028 -0.77311871567157 -1.83105238553855
 8  1.78347537253725 -0.40635554235424 -0.30492471257126
 7 -7.16356396489649  2.63572497979798  0.44263942074207
 6 -6.09190632163216  3.40612156605661  0.71052903690369
 6 -6.41171916161616  4.81612224262426  0.77782554705471
 6 -7.81734232963296  4.88356824352435  0.43001990899090
 6 -8.22267282048205  3.49304959625963  0.19875021422142
 6 -5.47611339253925  5.90273136443644  1.17990451565157
 6 -8.59968918131813  6.11532660066007  0.28222824472447
 6 -8.13265246304630  7.29525560986099  0.03670940864086
 7 -9.12196723242324  0.60173665196520 -0.48669037433743
 6 -9.97423908290829  1.73214389698970 -0.53754887908791
 6 -11.21518626152615  1.38803979437944 -0.98104285388539
 6 -11.24679320002000 -0.00366648934893 -1.30728999519952
 6 -9.91005088878888 -0.47795628372837 -0.87720702360236
 6 -12.34902314441444  2.43812609350935 -1.26727725862586
 6 -12.45375542124212 -0.85880694289429 -1.80817599479948
 6 -12.53409974197420 -1.03201708690869 -3.35304340974097
 7 -7.25606185828583 -1.37697705930593 -0.19896301500150
 6 -8.25244046634663 -2.30439637913791 -0.43686149204920
 6 -7.74128179567957 -3.61578576147615 -0.39167759675968
 6 -6.39869539153915 -3.59567388288829 -0.07690018211821
 6 -6.12969774797480 -2.15298145264526  0.12635425682568
 6 -8.67486783148315 -4.86815963486349 -0.60715026202620
 6 -5.28177471517152 -4.47327331263126  0.23691219111911
 8 -5.11445280708071 -5.56405905950595  0.09713574837484
 6 -4.07735114511451 -3.38499143324332  0.57356824882488
 6 -3.46077044124412 -3.70226631123112  1.88746992669267
 8 -3.61169482408241 -3.12794602740274  2.96890060536054
 8 -2.62932428032803 -4.80341849434943  1.64928301630163
 6 -2.01358399689969 -5.41176164546455  2.83431476847685
 6  2.83326710331033 -0.71773103080308 -1.30205558045805
 6  4.16395971837184 -0.44442829222922 -0.62589511821182
 6  5.10087369476948  0.42889621412141 -1.02345224542454
 6  5.06661407800780  1.39783431973197 -2.12137922902290
 6  6.35508196579658  0.39278808570857 -0.18054474067407
 6  7.58676641554155 -0.14010589248925 -0.99578924762476
 6  8.91867094949495 -0.11198093159316 -0.28101069526953
 6  10.21882277527753 -0.38123522182218 -0.99953634803480
 6  10.12162934913491 -1.90336967186719 -1.53248490999100
 6  11.40123124022402 -0.29908079867987  0.00304050275028
 6  12.68805597459746 -0.48992550845085 -0.69105964576458
 6  13.90265595339534 -0.16265302850285  0.32640985398540
 6  15.29607495149515 -0.18964157585759 -0.44159721002100
 6  15.62978708090809 -1.69947273307331 -0.75270255005501
 6  16.32311556555655  0.37158154425443  0.53328251295130
 6  17.82163786808681  0.35838396419642  0.00142186228623
 6  18.70923632313231  1.31913376017602  0.82304466616662
 6  20.16705438523852  1.30185593019302  0.22902250585058
 6  20.38142837173717  2.00168581658166 -1.08473429482948
 6  21.24207208130813  1.89239360876088  1.35416211781178
 1 -4.09535979447945  3.57753613531353  1.37367188818882
 1 -10.10827457915792  3.75685326922692 -0.10501480408041
 1 -10.09923918571857 -2.49200925562556 -1.35608915641564
 1 -2.57816650735074 -0.96374603830383  2.07172441104110
 1 -2.10563020102010  1.54189267786779  1.14160852735274
 1 -1.81946566986699  0.98218370737074  3.51931214461446
 1 -2.87675246144614  2.52236169276928  3.38906347384739
 1 -3.60428140934093  0.78298266596660  3.69320320482048
 1 -2.03457598449845 -1.66747266766677 -0.45819080508051
 1 -2.07113131533153  0.23503559485949 -0.73986908850885
 1 -0.33768086208621  0.38370629412941  1.03404565646565
 1 -0.09913586728673 -1.36096907230723  1.11041391729173
 1 -4.90459262696270  6.25045022012201  0.21180296249625
 1 -5.59031370167017  7.06052585138514  1.76637132633263
 1 -4.71833506230623  5.57260243164316  1.92068574727473
 1 -9.73424092299230  5.91276421252125  0.49907775227523
 1 -8.72855349574957  8.22388097759776  0.35252584588459
 1 -7.08399343594359  7.50449101830183 -0.23290776137614
 1 -12.21449686248625  3.14250155545555 -2.11939823822382
 1 -13.09190440394039  1.87793343144314 -1.83002652635264
 1 -12.52648961036104  3.07708079347935 -0.44198569656966
 1 -12.39077160526053 -1.61571396959696 -1.07501770967097
 1 -13.28287429102910 -0.29309312231223 -1.49143650065007
 1 -13.43893435963596 -1.52980421962196 -3.48423142084208
 1 -12.47546772077208  0.05529680378038 -3.71339891489149
 1 -11.55552890049005 -1.52660560456046 -3.57733684918492
 1 -8.81730262616262 -5.00219306760676 -1.78410599199920
 1 -8.18517221822182 -5.89448955715572 -0.19689391749175
 1 -9.71651381718172 -4.56681346834683 -0.12465072127213
 1 -3.38674880688069 -3.44318590309031 -0.18673532653265
 1 -1.28293938393839 -4.63762213951395  3.25223191019102
 1 -2.72144733213321 -5.60106074847485  3.64232145424542
 1 -1.53385481198120 -6.15666984408441  2.58555525842584
 1  2.67063173427343 -1.82567225712571 -1.50055413171317
 1  2.61935363556356 -0.10198728032803 -2.10345236503650
 1  4.36352557685769 -1.01191919811981  0.29893226942694
 1  4.07147808410841  1.32022311861186 -2.59421276357636
 1  5.18425172357236  2.49488387858786 -1.62416677127713
 1  5.79116443924392  1.20885121532153 -3.05393669296930
 1  6.49906292959296  1.33954018171817  0.36735423312331
 1  6.39512286028603 -0.25567881678168  0.64342534963496
 1  7.29175291739174 -0.99065013671367 -1.67160128882888
 1  7.75583711471147  0.51335821232123 -2.00319046594659
 1  8.83255935313531  0.93439605610561  0.22816677917792
 1  8.87102492529253 -0.76195455085509  0.58059267786779
 1  10.42990470197020  0.32412717901790 -1.79293312391239
 1  9.05542203860386 -1.96328337263726 -2.16923188438844
 1  10.86201928662866 -2.12416892949295 -2.38714490049005
 1  10.11064853845384 -2.67816943954395 -0.72828491919192
 1  11.16046080828083  0.83223763126313  0.34586655005501
 1  11.29151956165616 -0.91293363146315  0.87540501350135
 1  12.60514625032503 -1.46278313971397 -0.93541187608761
 1  12.99508841484148  0.28800827982798 -1.40903926772677
 1  13.40491199439944  0.82112536803680  0.80187684818482
 1  13.96926301660166 -1.01126356365637  0.99190436013601
 1  15.26142853495350  0.19166902730273 -1.53016267576758
 1  15.94830683168317 -2.29929665556556  0.11055345774578
 1  14.94303183498350 -2.06591478507851 -1.19509723012301
 1  16.57773583218322 -1.56627055565557 -1.23892600140014
 1  16.09492470217021  1.40270934363436  0.60772419341934
 1  16.23043474547455  0.17662126642664  1.47226015771577
 1  18.24870406230623 -0.70873783758376 -0.00684669226923
 1  17.88209829102910  0.49465072357236 -1.03053653755376
 1  18.37383606640664  2.60865276487649  0.80052515341534
 1  18.79455573297330  0.91549516081608  1.89751610321032
 1  20.23470353705370  0.12764920072007  0.05733348374838
 1  20.13401023432343  3.09219820472047 -1.09662993249325
 1  21.37806392029203  2.19550542844284 -1.41557281128113
 1  19.95251608480848  1.53367476977698 -1.88050847414741
 1  21.03317333263326  1.26991629542954  2.16750619221922
 1  22.25753039353935  1.80982951415142  0.96320058625863
 1  20.85173770637064  2.86902057825783  1.52374830603060

