%nproc=4
%Mem=2GB
# td=(NStates=1) CAM-B3LYP/6-31G(d,p) 

TD

0 1
12 -7.14927659695970  0.62999123982398  0.00115816441644
 6 -4.80719960106011 -1.86868898019802  0.46897253215322
 6 -4.86789609590959  2.88034236153615  1.14757821502150
 6 -9.40882547134713  3.15453785318532 -0.33911524452445
 6 -9.43154418201820 -1.70820099509951 -0.87946606160616
 7 -5.06980976257626  0.51949320982098  0.78855637603760
 6 -4.30051765706571 -0.64231485188519  0.88518042084208
 6 -2.93669463066307 -0.34437971007101  1.32105754695470
 6 -2.92365265446545  1.12254338683868  1.58713151955196
 6 -4.35877396409641  1.51255163556356  1.12858912011201
 6 -2.78149594059406  1.47648413571357  3.18408193429343
 6 -1.83429771067107 -0.64319832993299  0.16886621242124
 6 -0.50754900890089 -0.44330256165617  0.58746732963296
 6  0.51421079947995 -0.90934436653665 -0.51036268806881
 8  0.22185273497350 -1.21947335113511 -1.64635391569157
 8  1.76136316131613 -0.52348725552555 -0.07916213631363
 7 -7.18193580208021  2.67151855915592  0.40936609340934
 6 -6.12981011201120  3.39856080998100  0.74820280428043
 6 -6.48401639133913  4.83196382678268  0.87215497999800
 6 -7.78103869926993  4.85522540924092  0.46116302330233
 6 -8.21945249844984  3.53491378267827  0.16205654485449
 6 -5.46297207840784  5.80432152345235  1.32954948014801
 6 -8.65299451185119  6.00821588958896  0.44160418231823
 6 -8.28271746954695  7.29710579487949  0.20803654135414
 7 -9.07954298999900  0.71318779707971 -0.50754245954595
 6 -9.78710036903690  1.81828251085109 -0.56987211141114
 6 -11.09019376227623  1.47694868526853 -1.10656540614061
 6 -11.15810433113311  0.09733361066107 -1.31731099729973
 6 -9.85242512621262 -0.31890037813781 -0.98848815171517
 6 -12.32069031113111  2.39724200510051 -1.18509904080408
 6 -12.27962800850085 -0.73966502870287 -1.78626380358036
 6 -12.31642797479748 -1.30737462266227 -3.23636174157416
 7 -7.20165641774177 -1.36554591619162 -0.25526864556456
 6 -8.27001222352235 -2.27944388388839 -0.58254606050605
 6 -7.76467413491349 -3.66739092199220 -0.57500592959296
 6 -6.43293881588159 -3.51716603210321 -0.18866135823582
 6 -6.13834861306131 -2.24060021452145  0.10117173857386
 6 -8.63323366806681 -4.79657247614761 -0.94956450345035
 6 -5.27946448414841 -4.36740272557256  0.12015051495150
 8 -4.97152851465146 -5.54084673827383  0.00867690249025
 6 -4.19020243024302 -3.33501643574357  0.53201409340934
 6 -3.52583694789479 -3.65943202780278  1.84149532923292
 8 -3.60280393499350 -3.12039527232723  2.92878659395940
 8 -2.67603895179518 -4.69369752225222  1.65192328032803
 6 -1.99122176067607 -5.09438990829083  2.82193353035304
 6  2.75564934153415 -0.95816507420742 -1.10126550145015
 6  4.07261058345835 -0.59645349474947 -0.44270679937994
 6  4.93647725512551  0.33931725622562 -0.92238213841384
 6  5.05353276987699  1.07227176347635 -2.13027011811181
 6  6.30941739933993  0.37445625252525 -0.17780446664666
 6  7.55504324322432 -0.10000188208821 -0.87345701440144
 6  8.84011309370937 -0.14479421292129 -0.04005659985999
 6  10.10777167016702 -0.59013611191119 -0.72631902630263
 6  10.12000918711871 -2.01211054595460 -1.27715937743774
 6  11.31717283438344 -0.23051394199420  0.00316051475148
 6  12.66485365436544 -0.34446096199620 -0.69614015381538
 6  13.93529921772177  0.03706694349435  0.12876008900890
 6  15.25243058705871 -0.11918453015302 -0.49735278557856
 6  15.50449455165517 -1.59196198199820 -0.92492977277728
 6  16.30190344434443  0.42683706980698  0.28850803550355
 6  17.73397910221022  0.57242536833683 -0.21246952685269
 6  18.70191559105911  1.23773562036204  0.75343770547055
 6  20.20621830163016  1.27549329392939  0.25371497509751
 6  20.30564079297930  2.12003765176518 -1.08085390679068
 6  21.15976385048505  1.88362273167317  1.23007970957096
 1 -3.91982224072407  3.66184456615662  1.28794331533153
 1 -10.16497024872487  3.86134371827183 -0.37614191679168
 1 -10.26724598639864 -2.30671072577258 -1.14819836733673
 1 -2.65459415011501 -1.06519618331833  2.11189842844284
 1 -2.24374401240124  1.62679116771677  0.97476184268427
 1 -1.87897162046205  1.05818130713071  3.29891010441044
 1 -2.75363014921492  2.61854131073107  3.35681024852485
 1 -3.62834381558156  1.05336970467047  3.84679856435644
 1 -1.93630615751575 -1.87913383378338  0.14424943894389
 1 -2.08107230943094 -0.27959586828683 -0.83358846044604
 1 -0.28018511251125  0.57171509500950  0.75709796169617
 1 -0.11727768146815 -0.88212118751875  1.46642951885188
 1 -4.78842100980098  5.94702987808781  0.44577635983598
 1 -5.79622429272927  6.88510830963096  1.77447213641364
 1 -4.81386461526153  5.35899107050705  2.02069574827483
 1 -9.65106260516052  5.84803773987399  0.63162100660066
 1 -9.12408304870487  8.01217980748075  0.40410100340034
 1 -7.21502653925393  7.57113768296830 -0.19502397299730
 1 -11.85340075287529  3.29412671797180 -1.69143544194419
 1 -13.15962117561756  1.95364100220022 -1.99952347604761
 1 -12.67159412081208  2.71296438183818 -0.12776427442744
 1 -12.25266779487949 -1.68778117631763 -1.00665087298730
 1 -13.08954495809581 -0.23975778877888 -1.71006836383638
 1 -13.09280974717472 -2.08864010321032 -3.54369736743674
 1 -12.47213738773877 -0.56380510641064 -4.09073664866487
 1 -11.45630897849785 -1.86425936993699 -3.56627574307431
 1 -9.23239413531353 -4.72577542584258 -1.88020560196020
 1 -7.92008570957096 -5.62104221242124 -0.90768499659966
 1 -9.47374954075407 -4.98247503450345 -0.09895815201520
 1 -3.26840697269727 -3.33645523002300 -0.10625727872787
 1 -1.06085717571757 -4.19394777207721  3.08786547354735
 1 -2.80167535493549 -5.08398904130413  3.65051227332733
 1 -1.58345977247725 -6.21762593969397  2.56782348524853
 1  2.33444811591159 -1.84423411331133 -1.31982605890589
 1  2.36684838503850 -0.43505058665867 -1.77370939073907
 1  4.21997122142214 -1.01164917111711  0.62691506770677
 1  4.23952488878888  0.81689278557856 -2.83152649494949
 1  5.20136343474347  2.16433082328233 -1.98948330293029
 1  6.01883720652065  0.56373670387039 -2.67996929622962
 1  6.62730575387539  1.43853008070807 -0.01844434673467
 1  6.06089943794379 -0.10303355225523  0.82735374247425
 1  7.29338308040804 -1.20873194489449 -1.25489961866187
 1  7.64126565756576  0.23216009250925 -1.87267741464146
 1  9.10719681688169  0.93606622312231  0.43559752225223
 1  8.66419424222422 -0.87339569496950  0.73819843844384
 1  10.21172288378838 -0.10485571927193 -1.64641847244724
 1  9.05291178757876 -2.10569761406141 -1.82252721392139
 1  10.84962804750475 -2.11520803340334 -2.15678186418642
 1  10.28901637523752 -2.88886050865087 -0.49914200490049
 1  11.31286604880488  0.77373178067807  0.42077404080408
 1  11.48830924062406 -0.90171250935093  0.95342281528153
 1  12.77021275697570 -1.41056791819182 -1.00387872277228
 1  12.70468937493749  0.35441492049205 -1.72632099589959
 1  13.66425792899290  1.10530378587859  0.44495115561556
 1  13.78174426472647 -0.43289572687269  1.26798196789679
 1  15.44101649374938  0.45477533793379 -1.48795845534553
 1  15.30513251425143 -2.27939466536654  0.01911431383138
 1  14.73607113891389 -2.13508170177018 -1.50315803620362
 1  16.53944200280028 -1.88242217081708 -1.40186229502950
 1  16.02049725942594  1.42671174387439  0.50319374037404
 1  16.45144684668467  0.07791139543954  1.24323725542554
 1  17.99494868676868 -0.37632459625963 -0.46171217881788
 1  17.88370845204521  1.06203746224622 -1.22453593749375
 1  18.23142182498250  2.11693359295930  0.95518061896190
 1  18.53430970837084  0.77866147744774  1.72440879247925
 1  20.51089115581558  0.14510094589459  0.11619937033703
 1  19.85756258955896  3.06630561546155 -1.18538880838084
 1  21.50217633153315  2.23624950285028 -1.59432068606861
 1  19.87343817701770  1.56988839113911 -1.91299172247225
 1  20.93386340164016  1.20828013181318  2.04350379197920
 1  22.17048168866887  1.81889042024202  0.67705197139714
 1  21.02368490109011  2.98131180738074  1.42701863306331

