%nproc=4
%Mem=2GB
# td=(NStates=1) CAM-B3LYP/6-31G(d,p) 

TD

0 1
12 -7.17317898719872  0.49509775047505  0.14202225082508
 6 -4.81688056915692 -1.90338244954495  0.42704833973397
 6 -4.92162146844684  2.90278460576058  1.35522898009801
 6 -9.54419900870087  3.14612701210121 -0.40216154915492
 6 -9.51630265786579 -1.83360353535354 -0.90341845684568
 7 -5.13683646524652  0.52987424792479  0.72809032943294
 6 -4.32989059435944 -0.56049667006701  0.74895679847985
 6 -2.91805276647665 -0.21963723582358  1.20645608680868
 6 -3.07605789498950  1.12488362086209  1.76105891229123
 6 -4.48543663036304  1.58528890929093  1.22679894109411
 6 -3.15105289628963  1.05197168446845  3.31579510561056
 6 -1.92671695259526 -0.37566157625763 -0.01448212241224
 6 -0.41417967196720 -0.30021825322532  0.45841442434243
 6  0.47607698609861 -0.50963439553955 -0.65997764956496
 8  0.23979452915292 -0.91812321612161 -1.78248752905291
 8  1.75401242624262 -0.17118202500250 -0.24977919801980
 7 -7.31372898139814  2.53638504580458  0.35186034283428
 6 -6.20801793279328  3.25276623052305  0.91939992399240
 6 -6.59161715141514  4.69735036543654  0.91011877637764
 6 -7.94222481788179  4.81973185988599  0.49051595859586
 6 -8.28075862906291  3.43299359065907  0.14589492869287
 6 -5.76576235743574  5.81524261556156  1.45872239743974
 6 -8.77701691409141  5.92929799779978  0.31081110301030
 6 -8.22777197499750  7.20356644094409  0.02644838253825
 7 -9.14250928662866  0.61096757505751 -0.44739644494449
 6 -9.92278393739374  1.73334401700170 -0.61119624382438
 6 -11.19006374927493  1.33319430983098 -1.06742149174917
 6 -11.18110663136314  0.00695457275728 -1.29377864406441
 6 -9.95784566826683 -0.44027251535153 -0.95517482038204
 6 -12.36692493459346  2.40598287918792 -1.25418594949495
 6 -12.28838888458846 -0.80325138733873 -1.86279145634563
 6 -12.11739807180718 -1.12450633583358 -3.39482758815882
 7 -7.19752600470047 -1.41007036863686 -0.22089520822082
 6 -8.31770699299930 -2.24817075657566 -0.47713551945195
 6 -7.83122078957896 -3.63201738463846 -0.43693212221222
 6 -6.39193471547155 -3.52531684718472 -0.16304879697970
 6 -6.08158293649365 -2.14604075857586  0.01305292669267
 6 -8.60727107180718 -4.96703952285229 -0.52372191919192
 6 -5.23768030573057 -4.33681966726673  0.08575707560756
 8 -5.06037739953995 -5.55641829542954  0.11889792459246
 6 -4.17172058205821 -3.22222515661566  0.47092798479848
 6 -3.44023838803880 -3.51311739633963  1.81700287998800
 8 -3.68558221282128 -3.00619385218522  2.84704842014201
 8 -2.47158850675068 -4.51427958045805  1.67974606260626
 6 -1.97248988748875 -4.95531600090009  2.82005334233423
 6  2.69667344394439 -0.43831308900890 -1.25005037993799
 6  4.04187751015102 -0.44389823922392 -0.49277180588059
 6  5.05288889628963  0.27894121862186 -0.85105500570057
 6  5.13281069766977  1.29208374467447 -2.08271536263626
 6  6.42547900550055  0.22472127902790 -0.07103378957896
 6  7.66959469836984 -0.18323020492049 -0.96675634433443
 6  8.91509059145915 -0.25580531403140 -0.06243883808381
 6  10.22148304130413 -0.67246434473447 -0.91014740914091
 6  10.16524371057106 -2.13663299819982 -1.38971063256326
 6  11.45918703580358 -0.41392228282828 -0.08142794409441
 6  12.82395956495649 -0.61699821572157 -0.67815835563556
 6  13.95296098389839 -0.12075883908391  0.23600081308131
 6  15.45265060906091 -0.29081169286929 -0.43514656495650
 6  15.90356445864587 -1.78059084488449 -0.74853213301330
 6  16.45898915291529  0.40426481258126  0.56688587328733
 6  17.80249595389539  0.38923704950495 -0.08663694359436
 6  18.79934533403340  1.18073992079208  0.78948130983098
 6  20.31331901170117  1.28920466506651  0.09559916351635
 6  20.33193342224222  2.21690733873387 -1.22342816421642
 6  21.23015088918892  1.91238560796080  1.05104180578058
 1 -4.37507776627663  3.61245962766277  1.89998451945195
 1 -10.15140889258926  4.08862644654465 -0.69423372597260
 1 -10.23021228302830 -2.41315136983698 -1.28461200870087
 1 -2.79010770147015 -0.83032269596960  1.99037627622762
 1 -2.44944458245825  1.86465495409541  1.34651901840184
 1 -2.42378610191019  0.43530901990199  3.68280849424943
 1 -3.29517430363036  2.07440689728973  3.82573714121412
 1 -4.06899788098810  0.55319968766877  3.86615049954995
 1 -2.07711023792379 -1.15859177957796 -0.51492647864786
 1 -2.10965516771677  0.38021011231123 -0.62917801940194
 1 -0.40385747974798  0.60441836533653  1.05965821772177
 1 -0.20470642434243 -1.03277625302530  1.13638651455146
 1 -4.98610077777778  6.23849902500250  0.67290907310731
 1 -6.39055372567257  6.88769856865687  1.50759544874487
 1 -5.35003823262326  5.47323249464947  2.43852753145315
 1 -9.87205470437044  5.83903683978398  0.39042688718872
 1 -8.81699233963396  8.13561215071507  0.06458705200520
 1 -7.13741877847785  7.42900346954695 -0.17784225482548
 1 -11.85838125092509  3.14906221152115 -1.84029032743274
 1 -13.30443565706570  2.25367100520052 -1.81087461116112
 1 -12.91598856025603  3.02015510091009 -0.43476497449745
 1 -12.47213974207421 -1.77078947714772 -1.45837604550455
 1 -13.27096309990999 -0.28124193719372 -1.56135349234923
 1 -13.03413387958796 -1.59544078327833 -3.70310330803080
 1 -11.86651682568257  0.01668294239424 -3.94083165816582
 1 -11.28325167276728 -1.93616656065607 -3.48345746124612
 1 -9.09152004790479 -4.72443529182918 -1.64744232563256
 1 -7.95723942494249 -5.89350945914591 -0.58395262336234
 1 -9.46705887168717 -5.19474626162616  0.21837358115812
 1 -3.45188532053205 -3.25016660116012 -0.31082773577358
 1 -1.28045913591359 -4.32677105440544  3.34822150915091
 1 -2.81754694209421 -5.11602224462446  3.62407963006301
 1 -1.54432585908591 -5.99362353945394  2.87746444934493
 1  2.48071274237424 -1.33807349724972 -1.62403647994800
 1  2.57727942814281  0.38257117551755 -2.13317533733373
 1  3.99223844814481 -1.20617862406241  0.44983735993599
 1  4.21402233853385  1.38882997929793 -2.74122746504650
 1  5.57022032043204  2.21148553875388 -1.63678803340334
 1  5.87874319711971  0.87025735593559 -2.70720201950195
 1  6.61905492879288  1.30792702040204  0.39275677337734
 1  6.43787713571357 -0.44109735863586  0.62282328942894
 1  7.53283702580258 -1.21044211591159 -1.49165329402940
 1  7.77264879587959  0.39778665516552 -1.95207535443544
 1  9.20711680888089  0.73170578707871  0.27066102860286
 1  9.03784160696070 -1.07160551595160  0.78811342994299
 1  10.14486619811981  0.10905567186719 -1.71519535013501
 1  9.23254975137514 -2.18277532183218 -1.91927688888889
 1  10.99700278497850 -2.48832534513451 -2.02397858385839
 1  10.25363283688369 -2.80891251385138 -0.60262235293529
 1  11.39950471267127  0.74490889838984  0.31209317271727
 1  11.27011742144214 -1.05439777787779  0.88034550755076
 1  12.95443117881788 -1.77128398979898 -0.99396773167317
 1  13.29895880188019  0.04062354135414 -1.64878324212421
 1  13.76152765596560  0.79587284278428  0.55342200270027
 1  13.89976606690669 -0.79817225452545  1.20842601230123
 1  15.57989038113811  0.40225008540854 -1.28981864136414
 1  16.00348234923493 -2.11755848174817  0.29274167656766
 1  15.03442097389739 -2.34265245884588 -1.38643636403640
 1  16.83316137473748 -1.92292622122212 -1.58634074287429
 1  16.02472768246825  1.35230430313031  0.93469689068907
 1  16.48823052505251 -0.16423281898190  1.48690162186219
 1  18.20208940084009 -0.74186114991499 -0.17100310791079
 1  17.73005308650865  0.93066432493249 -1.05305878977898
 1  18.37956663946395  2.22003390299030  0.87051215211521
 1  19.01620789818982  0.76677028832883  1.74581093269327
 1  20.42360242694269  0.47623405920592 -0.14443669326933
 1  19.75767260056006  3.15135412031203 -1.12887315681568
 1  21.48920503440344  2.14078995689569 -1.59047030103010
 1  19.63789462266227  1.60268167046705 -1.98240866416642
 1  21.06238625392539  1.41593089688969  2.04300374197420
 1  22.15074971547155  1.91494002520252  0.68979324552455
 1  21.10191272387239  2.90964464066407  1.32998893009301

