%nproc=4
%Mem=2GB
# td=(NStates=1) CAM-B3LYP/6-31G(d,p) 

TD

0 1
12 -7.21513318261826  0.46273451415142  0.05827387598760
 6 -4.81183006410641 -1.95685779707971  0.42917855275528
 6 -4.82661196749675  2.83117744504450  1.08776223342334
 6 -9.47292188098810  3.09989238863886 -0.34516584958496
 6 -9.60567159475948 -1.72320249524953 -0.83764187918792
 7 -5.05868865046505  0.36361762226223  0.73451097149715
 6 -4.26576418171817 -0.69191981238124  0.74763666646665
 6 -2.80538149934993 -0.40254552665267  1.26259170037004
 6 -3.00221051025103  1.11525265776578  1.70359316571657
 6 -4.35839392609261  1.44692507290729  1.10616687788779
 6 -2.88536632763276  1.28251473877388  3.33413693979398
 6 -1.78285256615662 -0.53183719381938  0.09444877067707
 6 -0.38718697269727 -0.40509874127413  0.51074965786579
 6  0.57074645304530 -0.77636106820682 -0.61752340414041
 8  0.19350990069007 -1.23298470227023 -1.71936121642164
 8  1.81591861686169 -0.50635554235424 -0.36145036513651
 7 -7.11134874337434  2.59618102540254  0.28854401120112
 6 -6.06383351435144  3.38551950585059  0.76652463646365
 6 -6.45802379207921  4.78250888128813  0.89427719221922
 6 -7.69119971537154  4.82345223192319  0.44286119311931
 6 -8.16926747994799  3.50536082738274  0.09772011121112
 6 -5.58590437163716  5.86696778807881  1.30842736793679
 6 -8.64345355775578  6.02893796179618  0.36903692559256
 6 -8.37050624842484  7.32659874417442  0.22184792249225
 7 -9.15617065276528  0.71595807410741 -0.54661636693669
 6 -9.89110076907691  1.81405208780878 -0.70661578577858
 6 -11.25492023492349  1.47335832623262 -1.05670041964196
 6 -11.27524604530453  0.10774465176518 -1.21469073527353
 6 -9.90409029272927 -0.36856534463446 -0.78880818371837
 6 -12.41356959905991  2.41035331623162 -1.27313784468447
 6 -12.35802584828483 -0.70451151335134 -1.61923710091009
 6 -12.26384271627163 -1.07694157935794 -3.13990209560956
 7 -7.21425767786779 -1.42472183378338 -0.17267038573857
 6 -8.26659188148815 -2.20301624112411 -0.58819662556256
 6 -7.72059972747275 -3.68114229712971 -0.50756918591859
 6 -6.48561408340834 -3.49797411291129 -0.01280377247725
 6 -6.20939571777178 -2.24352050655065  0.02668428982898
 6 -8.53409375407541 -4.81673449234923 -0.91516106310631
 6 -5.35984252195220 -4.35535152045205  0.15589408930893
 8 -5.23084444624462 -5.56909956355636  0.17402343714371
 6 -4.21510492049205 -3.31585451955196  0.53119401140114
 6 -3.57727209140914 -3.64375045964596  1.86394757445745
 8 -3.80130378497850 -3.06947017981798  2.91287500280028
 8 -2.75997734563456 -4.71240939343934  1.75369345734573
 6 -2.13949658815882 -5.13406387568757  2.97108844584458
 6  2.81808558515852 -0.61639089678968 -1.36019139403940
 6  4.12038536093609 -0.48809265866587 -0.61396392509251
 6  5.10942454985499  0.37275059955996 -0.95116501670167
 6  5.11441885848585  1.15477001330133 -2.29122621372137
 6  6.33184964256426  0.40119892679268 -0.25312199839984
 6  7.57915565446545 -0.15832771467147 -1.05243491219122
 6  8.80763984638464 -0.07876761026103 -0.19440203440344
 6  10.22470336333633 -0.49807690599060 -0.88761515591559
 6  10.23729091529153 -1.93544287918792 -1.35997765926593
 6  11.38174929202920 -0.29958084868487  0.07550774947495
 6  12.82044921392139 -0.42174869076908 -0.54290483028303
 6  14.03005869366937 -0.16237300050005  0.34030124312431
 6  15.33086843084308 -0.13268588028803 -0.43218626892689
 6  15.58183228542854 -1.47693047884788 -0.96629390919092
 6  16.43540679467947  0.34202858895890  0.54432361706171
 6  17.74714041834184  0.55463358915892 -0.11983026292629
 6  18.89552495199520  1.21199304610461  0.75978834053405
 6  20.34323200300030  1.35377112171217  0.19229883348335
 6  20.35949617851785  2.06724237223722 -1.07001282268227
 6  21.14974284838484  1.91468583798380  1.26337303890389
 1 -4.04478473697370  3.46841522322232  1.37599212021202
 1 -10.18999275097510  3.87670525442544 -0.40109441204120
 1 -10.36653591539154 -2.42123217791779 -1.36887043454345
 1 -2.34950364106411 -1.03124278797880  2.17744498309831
 1 -2.20682032003200  1.72060054865487  1.22911727822782
 1 -1.84103782708271  1.19456494549455  3.78544875827583
 1 -3.21968675487549  2.29076853345335  3.44358892639264
 1 -3.66522750395039  0.69114348204820  3.84667855235524
 1 -1.91736426332633 -1.39433535393539 -0.25100008600860
 1 -2.20699490169017  0.08989108040804 -0.69234433603360
 1 -0.02669976397640  0.64029195269527  0.94639689158916
 1 -0.26015196889689 -1.10602357775778  1.38889176507651
 1 -5.10105227292729  6.20457563266327  0.47136891909191
 1 -6.05256992729273  6.71856165496550  1.95051974117412
 1 -4.74866809560956  5.60775594699470  2.09567324602460
 1 -9.76815431433143  5.77579051515151  0.39891773627363
 1 -9.07852849324932  8.09627821732173  0.29452004530453
 1 -7.27913294989499  7.56731730093009  0.01989751915192
 1 -12.29484489728973  2.95150245554555 -2.15724202260226
 1 -13.27273248674867  1.87546318441844 -1.58891241494149
 1 -12.31520848224823  3.21078416381638 -0.39205070307031
 1 -12.37743027112711 -1.79599199739974 -1.21095130303030
 1 -13.27386338993899 -0.24227804080408 -1.41304866186619
 1 -13.14303476967697 -1.66790803000300 -3.34090708840884
 1 -12.61365153915392 -0.21931065696570 -3.66531410641064
 1 -11.31931527912791 -1.34020696469647 -3.30393950945095
 1 -8.68064896079608 -4.73755660396040 -1.91870945234523
 1 -8.06877057805781 -5.71719182738274 -0.78884311241124
 1 -9.51280344614461 -4.97623441044104 -0.48847710391039
 1 -3.36993712571257 -3.57519910441044 -0.38387504050405
 1 -1.72672376237624 -4.25721409870987  3.44637132413241
 1 -2.86688187558756 -5.46341698409841  3.80270749284928
 1 -1.40562198869887 -5.88548272537254  2.74857156005601
 1  2.56290096119612 -1.58758844874487 -1.87757183348335
 1  2.64192589278928  0.03299621802180 -2.30398241804180
 1  4.41091031533153 -0.87820582678268  0.29313168936894
 1  4.18924986128613  1.20300139643964 -2.80750409270927
 1  5.22759605800580  2.26693108330833 -1.99133348794880
 1  6.04640996379638  0.78641897209721 -2.92354365366537
 1  6.44286731003100  1.41034726242624 -0.02609511181118
 1  6.29670301830183 -0.26643989288929  0.62002300940094
 1  7.32995673777378 -1.27842891459146 -1.18231235993599
 1  7.61938346934694  0.41289816631663 -1.99686983388339
 1  8.71964806200620  0.98451106760676  0.38523248574858
 1  8.89089691249125 -0.86389474487449  0.63812843144314
 1  10.44498621012101  0.00598536483648 -1.71376520712071
 1  9.29351584798480 -2.13087013131313 -1.95606056725673
 1  11.06808989368937 -2.16435294789479 -1.97510369636964
 1  10.22513998759876 -2.59764138673867 -0.62422451315132
 1  11.30963572577258  0.64887929542954  0.76308827222722
 1  11.28327873757376 -1.07893023112311  0.92584005700570
 1  12.88419415511551 -1.54855171657166 -0.84883321822182
 1  12.58280718671867  0.12336181518152 -1.47415577937794
 1  13.89836133933393  0.86717997349735  0.82416907740774
 1  14.07381347164717 -0.98346078337834  1.11997716741674
 1  15.28981137323732  0.55370523092309 -1.23015267476748
 1  15.61223322432243 -2.16283300920092 -0.26104370197020
 1  15.20494802660266 -1.88029622322232 -1.81840956135614
 1  16.61038909750975 -1.58909283788379 -1.36793890269027
 1  16.07716292599260  1.19191826452645  1.09873329432943
 1  16.50511221322132 -0.33400979667967  1.31618455015502
 1  18.27727691959196 -0.37946491029103 -0.47179318691869
 1  17.62582266346635  1.29618087658766 -1.01481496539654
 1  18.64529321212121  2.26675857545755  0.93685878677868
 1  18.92606888428843  0.74684829612961  1.58807515911591
 1  20.27417748444844  0.22997943374337 -0.12798504810481
 1  19.70148698199820  2.97876686158616 -1.05625589508951
 1  21.32349846374638  2.45697157505751 -1.38867012101210
 1  19.78396923012301  1.48505990829083 -1.77159758305831
 1  21.08080809610961  1.35130443424342  2.17440688228823
 1  22.24376901740174  2.12185071627163  0.73973824002400
 1  20.62538507110711  2.96261993819382  1.54378030923092

