%nproc=4
%Mem=2GB
# td=(NStates=1) CAM-B3LYP/6-31G(d,p) 

TD

0 1
12 -7.07058872817282  0.63137137783778 -0.06514846624662
 6 -4.89168804990499 -1.92068417971797  0.50097573247325
 6 -4.87495680198020  2.73093742104210  1.21279473667367
 6 -9.41416600540054  3.22645504490449 -0.40686201920192
 6 -9.53103413101310 -1.63406358135814 -1.00810892589259
 7 -5.12612539413941  0.41009226972697  0.63679119951995
 6 -4.40618822412241 -0.72375299569957  0.77643954675468
 6 -2.99717067826783 -0.44708998109811  1.35925136633663
 6 -3.04421471067107  1.04836596909691  1.79491229762976
 6 -4.39650773747375  1.38399878027803  1.20072633383338
 6 -3.00856864786479  1.24891137843784  3.28272179827983
 6 -1.96320060096010 -0.65436944704470  0.20365969176918
 6 -0.46963521752175 -0.63645187658766  0.68631721462146
 6  0.52051142954295 -0.69734316641664 -0.51194284608461
 8  0.16107665736574 -0.85006641044104 -1.64964424472447
 8  1.77591461646165 -0.63662856965697 -0.08772299239924
 7 -7.05612322082208  2.62138354565457  0.28898405520552
 6 -6.02569970097010  3.29400035393539  0.68550653465347
 6 -6.36398438813881  4.67796842724272  0.84345210971097
 6 -7.68296889228923  4.84309419611961  0.41246815381538
 6 -8.15681623482348  3.45505579687969  0.13848418761876
 6 -5.42642842404240  5.76369746104610  1.24295082028203
 6 -8.58584779717972  5.97530259825983  0.39125914781478
 6 -8.24220341814181  7.26300238453845  0.13155889358936
 7 -8.98351338703870  0.76713319161916 -0.55402710801080
 6 -9.80797245624562  1.82859354195420 -0.63959908410841
 6 -11.26459120202020  1.52530352075208 -1.01955670527053
 6 -11.19096761746175  0.16477035433543 -1.21554082028203
 6 -9.85086497019702 -0.31021951005101 -0.90457976087609
 6 -12.32402064416442  2.50858313921392 -1.35291582248225
 6 -12.37477752345234 -0.65866692889289 -1.64491966916692
 6 -12.22355868786879 -1.05037892309231 -3.20144825022502
 7 -7.25821207330733 -1.39518888048805 -0.31791491019102
 6 -8.34929015131513 -2.18888482798280 -0.64815262116212
 6 -7.86822448994899 -3.57706188908891 -0.59601803080308
 6 -6.54177969997000 -3.50954527002700 -0.19452194429443
 6 -6.29723450165016 -2.20976713121312  0.08365998739874
 6 -8.72034237893789 -4.78378119701970 -0.94346389338934
 6 -5.45211174887489 -4.42222820812081  0.18695719561956
 8 -5.29545090689069 -5.64116677027703  0.21650768556856
 6 -4.25091850185018 -3.36411934603460  0.58598949094909
 6 -3.68615297949795 -3.71413749834984  1.88366954665467
 8 -3.93189684428443 -3.21034426722672  2.93765748104811
 8 -2.76796814471447 -4.76678483098310  1.71995008300830
 6 -2.20182282078208 -5.12517298659866  2.99463080008001
 6  2.89789356595660 -0.80559981768177 -1.01080645554555
 6  4.05926924932493 -0.47370121952195 -0.39507203590359
 6  5.07060066746675  0.23104642914291 -0.99572947314731
 6  5.13623103970397  0.85557009330933 -2.29115620672067
 6  6.46925338293829  0.37284609150915 -0.21498818501850
 6  7.67127486638664 -0.18843072497250 -0.95011468016802
 6  9.01878096049605 -0.14891462496250 -0.06332892709271
 6  10.24578547154715 -0.55377247554755 -0.84247064146415
 6  10.07070425662566 -1.98889822472247 -1.42101376287629
 6  11.49494061116112 -0.42230312091209  0.07849804850485
 6  12.87139430843084 -0.58305482138214 -0.57039757955796
 6  14.03300898869887 -0.09201596479648  0.23974118711871
 6  15.35087043104310 -0.10675328702870 -0.49128217851785
 6  15.82498660086009 -1.48275106090609 -1.04456173597360
 6  16.45698895289529  0.55210959705971  0.36112529722972
 6  17.78314401870187  0.66405453125313 -0.30866914681468
 6  18.83687908740874  1.40756260306031  0.65912827452745
 6  20.31965964576458  1.47043278787879  0.05011461506151
 6  20.35529575847585  2.53773942194219 -1.05676149754976
 6  21.17454532863286  1.91110547994799  1.30740744234423
 1 -4.16595685418542  3.37144552625263  1.46220074107411
 1 -9.98127187888789  4.20485806970697 -0.56864116671667
 1 -10.38231749354935 -2.29033908860886 -1.15637918541854
 1 -2.78653734443444 -1.15337500120012  1.98110534913491
 1 -2.46109574757476  1.74521300990099  1.26725109160916
 1 -2.17366108940894  1.02298778777878  3.85567578097810
 1 -2.92881766796680  2.38684814141414  3.49540410791079
 1 -3.79089007020702  0.70370473817382  3.69950383488349
 1 -2.08701122802280 -1.69865578597860 -0.18202318831883
 1 -2.13617781998200  0.07844993629363 -0.69183428502850
 1 -0.22061915591559  0.19227715121512  1.34998725062506
 1 -0.22267822152215 -1.24617759315932  1.49054193009301
 1 -4.80801296899690  6.10402557765777  0.28100988318832
 1 -5.89037370767077  6.65483528232823  1.77583227242724
 1 -4.58412164096410  5.38877404880488  1.68308198689869
 1 -9.74417191609161  5.98478141424143  0.59822766726673
 1 -9.08597923832383  8.12520110961096  0.31864245754575
 1 -7.21097613421342  7.60343091229123 -0.30428489908991
 1 -12.36474188698870  3.05431273657366 -2.36746304470447
 1 -13.39379459295930  2.00183582168217 -1.29140266396640
 1 -12.39546650805081  3.35227831323132 -0.48745024302430
 1 -12.51335386348635 -1.52737513571357 -0.98141834973497
 1 -13.29508551215122 -0.21509532253225 -1.37313467046705
 1 -13.33738420462046 -1.34732597179718 -3.50491348904890
 1 -11.88430860486049 -0.14027275317532 -3.79070664566457
 1 -11.42481582918292 -1.81193413741374 -3.19647876337634
 1 -9.24777567346735 -4.75287813611361 -1.95658323972397
 1 -8.26466016701670 -5.67646775497550 -0.86864109220922
 1 -9.45160732653265 -4.65356214321432 -0.23423167936794
 1 -3.51817194919492 -3.60568215271527 -0.10491714471447
 1 -1.62544363436344 -4.10095847314731  3.36838352535253
 1 -2.98257344474447 -5.54197483988399  3.58636585868587
 1 -1.41857328382838 -5.88211238833883  2.71471817471747
 1  2.86053072417242 -1.86850654055406 -1.36563063936394
 1  2.67100880108011 -0.26537361896190 -2.00765278507851
 1  4.27451667596760 -0.91473948014801  0.60978335453545
 1  3.94534547084708  0.94357545384538 -2.41933527582758
 1  5.69971326972697  1.88029241944194 -2.30139449404941
 1  5.46631195399540  0.25043537373737 -3.07824912421242
 1  6.51831485478548  1.47215344304431  0.13648114581458
 1  6.43550689868987 -0.11659490839084  0.78466947404741
 1  7.48015175727573 -1.21742281398140 -1.15289941864186
 1  8.01295282628263  0.49745662216222 -1.71853200010001
 1  9.04672076927693  0.93126574307431  0.20120408290829
 1  8.86189401220122 -0.74031238663866  0.92889750835084
 1  10.50309202070207  0.25867063336334 -1.64538836943694
 1  9.32667916431643 -2.13451049534953 -2.12175713691369
 1  11.01386447114711 -2.16098261086109 -1.96369255525553
 1  9.77550502410241 -2.84976659925993 -0.63338542924292
 1  11.40076483868387  0.67419182668267  0.37448941234123
 1  11.31117152685268 -1.06686902500250  1.01051852485249
 1  13.07856359205921 -1.61401826322632 -0.78599693459346
 1  13.08464737073707 -0.19893041404140 -1.49556792059206
 1  13.94243574677468  1.01271452695270  0.46343300380038
 1  13.85227131743174 -0.62863530083008  1.24885005470547
 1  15.19775216731673  0.52898275867587 -1.46267592709271
 1  16.20525252625263 -2.06210293619362 -0.05779337693769
 1  14.90211774357436 -2.18111630523052 -1.54199191959196
 1  16.69271733033304 -1.53777770637064 -1.77459956875688
 1  16.16514172387239  1.49420849354936  0.72511593259326
 1  16.51200290229023 -0.21449784548455  1.19468239993999
 1  18.24323351525153 -0.44640160396040 -0.59207521512151
 1  17.52125220642064  1.08955021352135 -1.41259474337434
 1  18.36945562836284  2.31656355595560  0.89289439033903
 1  18.99647592499250  0.63294690599060  1.55128147974797
 1  20.59472953965397  0.33845028082808  0.00258800920092
 1  20.08774560786079  3.50351933683368 -0.81928219771977
 1  21.41543765766577  2.68283416131613 -1.28271952595260
 1  19.70311114431443  2.10054145644564 -1.78623904720472
 1  20.97638765406541  1.07570687448745  1.99879932153215
 1  22.25468010851085  1.95384391559156  0.79427369356936
 1  20.87204973757376  2.84920859705971  1.92626855805581

