%nproc=4
%Mem=2GB
# td=(NStates=1) CAM-B3LYP/6-31G(d,p) 

TD

0 1
12 -7.13199486878688  0.58060630133013  0.17304535313531
 6 -4.85849473057306 -1.95565767706771  0.51777741264126
 6 -4.76853615991599  2.86979130643064  1.19876333353335
 6 -9.47067165596560  3.03120551995199 -0.31295262826283
 6 -9.55741676927693 -1.73262343734373 -0.80576869186919
 7 -5.13826660826083  0.46026728722872  0.75593311371137
 6 -4.30531813711371 -0.71378199859986  0.77305920872087
 6 -2.93271423262326 -0.44040931303130  1.33451889308931
 6 -3.04046433563356  1.02293342584258  1.76894970137014
 6 -4.37889597629763  1.47791817221722  1.22760902210221
 6 -2.99445723672367  1.35453194049405  3.25639916601660
 6 -1.84734901580158 -0.68380239033903  0.18846817261726
 6 -0.48746700070007 -0.39615784718472  0.51047963086309
 6  0.52282166056606 -0.75420885298530 -0.55108676047605
 8  0.27133768346835 -1.11334273807381 -1.64233351365137
 8  1.87488451345135 -0.55597050385039 -0.12772699279928
 7 -7.02697030553055  2.62839424672467  0.39435459225923
 6 -5.97749488048805  3.39164011791179  0.88448643264326
 6 -6.46424441414141  4.79458008840884  0.89145691019102
 6 -7.76036663206321  4.86613650035004  0.40871777877788
 6 -8.14875542874287  3.42228251955196  0.23731407060706
 6 -5.59582536373637  6.06084717601760  1.40294681988199
 6 -8.55146435883588  6.00116518451845  0.36711673357336
 6 -8.15305450325032  7.30032611691169  0.14611034873487
 7 -8.99860489618962  0.66962344064406 -0.59000070537054
 6 -9.86580823982398  1.76553723632363 -0.66967209140914
 6 -11.24538928182818  1.45638662906291 -1.20979572917292
 6 -11.21008952965297  0.05885976327633 -1.36869613581358
 6 -9.90329021272127 -0.36054454255426 -1.06231553445345
 6 -12.32386062816282  2.44103638453845 -1.37581811271127
 6 -12.22123216891689 -0.83411447364736 -1.82293747094709
 6 -12.08834516651665 -1.05527941314131 -3.36340444584458
 7 -7.30981723382338 -1.35385474707471  0.05643252455246
 6 -8.27637285958596 -2.24666060556056 -0.39222702860286
 6 -7.90006767426743 -3.62896707960796 -0.53040146914691
 6 -6.49344486648665 -3.50989530503050 -0.08432092419242
 6 -6.26721149934994 -2.12751890639064  0.27479910131013
 6 -8.67164750945095 -4.77395021392139 -1.00328987598760
 6 -5.36283282098210 -4.31149713501350  0.14426292619262
 8 -5.23762512431243 -5.55121777537754  0.14015004980498
 6 -4.22921633163316 -3.36470940504050  0.56147703970397
 6 -3.52425678987899 -3.72055814041404  1.87910909060906
 8 -3.65573922852285 -3.04957819061906  2.91617533283328
 8 -2.74219556745675 -4.78215636813681  1.81178926692669
 6 -2.14684732323232 -5.28481895119512  2.92994433143314
 6  2.84198797539754 -0.64844410211021 -1.28889426432643
 6  4.16532985538554 -0.43034688408841 -0.67593012171217
 6  5.19063267066707  0.33917724222422 -1.22693259345935
 6  5.11483890049005  1.25557009330933 -2.34223131423142
 6  6.50584704230423  0.36219502640264 -0.41373806000600
 6  7.78807654655466 -0.13211509340934 -1.13013268196820
 6  9.01744082648265 -0.10647038053805 -0.27768036223622
 6  10.20955184818482 -0.60648774707471 -0.96934332873287
 6  9.99754694089409 -2.04966430133013 -1.37771943344334
 6  11.47297841494149 -0.42991388198820 -0.08701850315032
 6  12.78245541454145 -0.77734425032503 -0.64681522132213
 6  13.92780846864686 -0.18482524572457  0.25966317931793
 6  15.24964030803080 -0.27025963766377 -0.33977702800280
 6  15.67333143534353 -1.66717950375038 -0.68437571737174
 6  16.38846210021002  0.48286267236724  0.40168935363536
 6  17.74277998229823  0.62380050585058 -0.16858513841384
 6  18.70741614111411  1.39859170597060  0.70713307500750
 6  20.10149782958296  1.47123286788679  0.17630723432343
 6  20.15344557345734  2.34357000500050 -1.02028785018502
 6  20.90497837193719  1.88963333273327  1.27038373997400
 1 -4.05355561406141  3.53623200490049  1.50083460446045
 1 -10.16122987468747  3.76088367226723 -0.47027132973297
 1 -10.33952321412141 -2.31052110681068 -0.99371291879188
 1 -2.81978066876688 -1.17811747544754  2.25579281788179
 1 -2.22427206520652  1.69548803740374  1.46589095559556
 1 -2.10531425472547  0.75930141914191  3.67456767016702
 1 -2.93712849904990  2.23939339593959  3.64864943244324
 1 -3.85104608580858  0.86191055875587  3.77951183568357
 1 -1.77288981588159 -1.68877479787979 -0.27589257525752
 1 -2.20518472067207 -0.09931784048405 -0.62026712831283
 1 -0.31720881488149  0.54456237973797  0.84861711361136
 1 -0.12276823052305 -1.03821679707971  1.60417329322932
 1 -4.91521368906891  6.66396157125713  0.45511729392939
 1 -6.23323799409941  6.72876267506751  1.92712740194019
 1 -4.76952018081808  5.70251542294229  1.93092677137714
 1 -9.56065356425642  6.02727566366637  0.57809565406541
 1 -8.93606424682468  8.14335292479248  0.14908550185019
 1 -7.01599663626363  7.64822539173917  0.14915044444444
 1 -12.14190960376038  3.09853715901590 -2.24730102850285
 1 -13.38015322882288  2.30796643474347 -1.79712323602360
 1 -12.49241620302030  2.91114419981998 -0.42623412141214
 1 -12.17713024112411 -1.82987538573857 -1.25265547344734
 1 -13.27626362996300 -0.30020383338334 -1.57930528752875
 1 -13.02175264146415 -1.44729596879688 -3.68001099879988
 1 -12.06164633863386 -0.08114684058406 -3.86320389538954
 1 -11.11708505610561 -1.63808675267527 -3.78624774027403
 1 -8.81490238613861 -4.95795864416442 -2.09851743314331
 1 -7.99905360636064 -5.72672278047805 -0.75818004610461
 1 -9.80097226302630 -4.89870665766577 -0.67800605680568
 1 -3.55246537853785 -3.59951153565356 -0.32730938393839
 1 -1.51936302630263 -4.56223460076008  3.38978566556656
 1 -2.80267545494549 -5.84569521192119  3.63765098719872
 1 -1.47662908940894 -6.08881305840584  2.63855055795580
 1  2.65668033913391 -1.63322301220122 -1.73713779007901
 1  2.62615431563156  0.17451036943694 -2.16488850865087
 1  4.37960718501850 -1.02658066426643  0.27180955715572
 1  3.94948588488849  1.22545364166417 -2.73920726302630
 1  5.39551284968497  2.30793518371837 -1.96973132773277
 1  5.66146146894689  0.94606493669367 -3.13475477477748
 1  6.74432745604560  1.41349757745775 -0.03076557885789
 1  6.27363071107111 -0.25253850275028  0.54372537963796
 1  7.77461120322032 -1.17159823152315 -1.54673880258026
 1  7.99588111911191  0.49910678717872 -1.93533368026803
 1  9.02859895709571  0.90400301680168  0.22619658215822
 1  8.75226304910491 -0.84443279867987  0.70028464706471
 1  10.35148686018602  0.10814558085809 -1.79089291989199
 1  9.33259975637564 -2.20368741304130 -2.21355631683168
 1  11.09062214691469 -2.28734524712471 -1.89365555155516
 1  9.80931840544054 -2.85390701330133 -0.58866095679568
 1  11.28799356155615  0.62414682218222  0.07856982038204
 1  11.25052546224622 -0.74312665076508  1.09673714671467
 1  12.98175391109111 -1.78619548094809 -0.94944327922792
 1  12.90304921092109 -0.13181370237024 -1.60968933273327
 1  13.54958646184618  0.91729498499850  0.48868552905291
 1  14.00528661896190 -0.71839427672767  1.06638180788079
 1  15.22283467556756  0.34989484988499 -1.32676233573357
 1  15.76983898489849 -2.12089881578158  0.34679708210821
 1  14.76469400120012 -2.33878207180718 -1.07746546694669
 1  16.60767882648265 -1.73922785138514 -1.31588369716972
 1  16.03232844254426  1.51390046274627  0.53001642264226
 1  16.49119082108211  0.17885148944895  1.46148908060806
 1  18.06739593149315 -0.30747771157116 -0.44544055165517
 1  17.61350143134313  1.21419267776778 -1.11562504640464
 1  18.20896957975798  2.23104500410041  0.93425852675268
 1  18.75170144754475  0.90263387468747  1.64873122472247
 1  20.21125119181918  0.29645608140814 -0.02498474807481
 1  20.00788762206221  3.48519750465047 -0.68409867936794
 1  21.10115622952295  2.08181405930593 -1.43297455145515
 1  19.40488132133213  2.29964136643664 -1.85700612391239
 1  20.96886690199020  1.41056035983598  2.10341978357836
 1  21.85434007450745  2.31786031723172  0.82269653585359
 1  20.55724825742574  2.90256393259326  1.80774670587059

