%nproc=4
%Mem=2GB
# td=(NStates=1) CAM-B3LYP/6-31G(d,p) 

TD

0 1
12 -7.13514518381838  0.62201044174417  0.21705975457546
 6 -4.89247812891289 -1.91883399469947  0.50631626652665
 6 -4.84052335863586  2.75923025032503  1.21703516071607
 6 -9.37998258705871  3.07392979237924 -0.44410574357436
 6 -9.56731775937594 -1.82217239223922 -0.84073218821882
 7 -5.12996577817782  0.47317857835784  0.75066258665867
 6 -4.34810241554155 -0.69007962836284  0.77054895769577
 6 -2.87699866106611 -0.41261653375338  1.25327076827683
 6 -2.98025831503150  1.03681481398140  1.69679248564856
 6 -4.35934402110211  1.54663504390439  1.27077333853385
 6 -3.06934472547255  1.16699318661866  3.26062958905891
 6 -2.01813609450945 -0.53250726082608  0.00402972877288
 6 -0.50192844684468 -0.51041927332733  0.52776135903590
 6  0.48149752815282 -0.68382181428143 -0.66813846564656
 8  0.21335188488849 -0.96336774057406 -1.80992027232723
 8  1.72963998899890 -0.47779268606861 -0.31239545964596
 7 -7.16273388188819  2.59073048034803  0.51798695549555
 6 -6.07372450345034  3.36200715461546  0.86790477447745
 6 -6.38331632133213  4.71845247564756  0.98021578607861
 6 -7.70078067346735  4.83355324202420  0.47960486748675
 6 -8.19794034723472  3.49746003730373  0.18730907010701
 6 -5.51255703690369  5.82640373167317  1.39874639983998
 6 -8.52566177857786  6.06895196319632  0.34259428132813
 6 -8.08740793859386  7.26432251655165  0.03208894659466
 7 -9.12822785848585  0.68342482078208 -0.46549825512551
 6 -9.83470512951295  1.80036071867187 -0.63282840704070
 6 -11.19995473837384  1.45579657005701 -1.13353810341034
 6 -11.21755027572757  0.02503638093809 -1.30617988418842
 6 -9.92192207590759 -0.46125461356136 -0.83460276317632
 6 -12.21942018411841  2.39678195909591 -1.57102763366337
 6 -12.32615266096610 -0.71964302650265 -1.86929210641064
 6 -12.17723405540554 -1.02193607880788 -3.34779288468847
 7 -7.28922517461746 -1.43765312691269 -0.07984110281028
 6 -8.32542776507651 -2.34806074557456 -0.42704050995099
 6 -7.85765343284328 -3.66670085298530 -0.48408683768377
 6 -6.47542306430643 -3.52669698519852 -0.17535002710271
 6 -6.19530430863086 -2.29050520502050  0.08350997239724
 6 -8.56508685338534 -4.91349416831683 -0.83508305530553
 6 -5.19918645634564 -4.34862084738474  0.07728622852285
 8 -5.09447080888089 -5.58027068066807  0.09737577237724
 6 -4.03507691769177 -3.26555949004900  0.45272616461646
 6 -3.55739010321032 -3.60551663626363  1.76262744244424
 8 -3.86394004860486 -2.92294552735274  2.83832754805481
 8 -2.75191653955396 -4.71002915541554  1.83543163116312
 6 -2.21163380188019 -5.11218168746875  3.05547688468847
 6  2.79632340894089 -0.72865212291229 -1.24548992389239
 6  4.07170049244925 -0.56341019041904 -0.56765929462946
 6  4.98631223862386  0.35751907640764 -0.89789969016902
 6  5.09061647824782  1.37792232853285 -1.96241333243324
 6  6.36265272287229  0.26784559145915 -0.08448513471347
 6  7.58429616851685 -0.12187406930693 -0.86425609430943
 6  8.89773885628563  0.01798206470647 -0.08659125332533
 6  10.15673656665667 -0.55114221252125 -0.82777917231723
 6  10.03336052225223 -2.03221255615562 -1.20570223172317
 6  11.36681779887989 -0.31970286088609 -0.00965076637664
 6  12.77717488648865 -0.58174469036904 -0.68809934973497
 6  13.91771745954595 -0.09016577977798  0.20818803180318
 6  15.38149349334934 -0.17345995769577 -0.48960201050105
 6  15.71224532673267 -1.64018680448045 -1.03412069186919
 6  16.43014626862686  0.45424981108111  0.43853303800380
 6  17.83253895819582  0.44920304610461 -0.19839811971197
 6  18.74819021852185  1.26102794959496  0.70586294799480
 6  20.24356203600360  1.35304104870487  0.19126873047305
 6  20.33819404830483  2.05119076707671 -1.20149597099710
 6  21.19108698279828  2.12514688408841  1.17440414201420
 1 -4.18253851235124  3.38137651935194  1.75041956295630
 1 -9.97572132383238  3.93592117601760 -0.72160646324632
 1 -10.23062232403240 -2.61829188388839 -1.34321786928693
 1 -2.91418010871087 -1.18366803050305  2.20092733133313
 1 -2.28006764476448  1.56533502210221  1.23441780828083
 1 -2.13239696299630  0.93889937893789  3.81043125652565
 1 -3.27509229542954  2.34749420602060  3.33970853835384
 1 -3.97680866206621  0.69667403510351  3.48279216371637
 1 -2.30740326722672 -1.43934985538554 -0.71052603860386
 1 -2.04552875507551  0.25332742404240 -0.79511461306131
 1 -0.08326542054205  0.42680060356036  0.86034828672867
 1 -0.17957391109111 -1.42514548994900  1.10490336623662
 1 -4.80238240594059  6.36284145924592  0.59529131133113
 1 -6.04870954125413  6.72510230903090  1.65119980918092
 1 -4.75456868566857  5.51279645104511  2.08254193289329
 1 -9.65508300720072  5.70726366246625  0.45382322682268
 1 -8.90854149454945  8.06875546504650  0.13422401570157
 1 -7.15541057765777  7.70691126032603  0.06389191859186
 1 -11.83006841964196  3.06060336563656 -2.27919421782178
 1 -13.11746696019602  2.01070670877088 -1.99210273397340
 1 -12.58293525492549  3.09670275567557 -0.69927142514251
 1 -12.38836136423642 -1.43722612081208 -0.93697390529053
 1 -13.25283128672867 -0.09361317431743 -1.79680703770377
 1 -12.82496296249625 -1.66281752095210 -3.84399739743974
 1 -12.03778395239524 -0.15522424832483 -4.03221079607961
 1 -11.25376872447245 -1.64168711271127 -3.53333244874487
 1 -8.74983587948795 -4.83549639793979 -1.96879446084608
 1 -8.14085778677868 -5.87619772797280 -0.57753198129813
 1 -9.56212837863786 -4.80711749874987 -0.28805706190619
 1 -3.15352548454846 -3.34828641314132 -0.18982563556356
 1 -1.79073016301630 -4.28379675697570  3.33116980398040
 1 -3.16805199259926 -5.44065470787079  3.69552677477748
 1 -1.54401582808281 -6.02426660376038  2.73704040694069
 1  2.67772244334433 -1.70390007990799 -1.80269434573457
 1  2.61343304350435  0.40207312571257 -1.95223724352435
 1  4.24309353365337 -1.35844385058506  0.27792016821682
 1  4.11930286658666  1.47688878517852 -2.58297163946395
 1  5.47326062446245  2.37487187738774 -1.56358071267127
 1  5.88717404020402  1.01590192039204 -2.79516081538154
 1  6.64881790509051  1.22383861156116  0.25780327802780
 1  6.27503085108511 -0.38306155505550  0.84732573967397
 1  7.35390913301330 -1.12445351705171 -1.29096322502250
 1  7.49582111311131  0.59795667216722 -1.66729687658766
 1  9.12838893609361  1.13724634113411  0.07796175867587
 1  8.49696751955195 -0.58801715711571  0.85160977957796
 1  10.34195590709071 -0.02238747244724 -1.75251908250825
 1  9.36702319871987 -2.34770181448145 -2.02185714691469
 1  11.00834391909191 -2.51966847944794 -1.57192337833783
 1  9.75706317991799 -2.68466008860886 -0.41104319501950
 1  11.14662942514251  0.79805421292129  0.41541350475048
 1  11.30038044774477 -0.86029836793679  0.90148762176218
 1  12.86053178887889 -1.62666952835284 -0.79932826772677
 1  12.76372527852785 -0.23670419141914 -1.63382174597460
 1  13.81413291649165  0.99743299879988  0.37098375887589
 1  13.88349443974397 -0.55347778507851  1.29019418911891
 1  15.44752714481448  0.54136399679968 -1.29475913541354
 1  15.78373037403740 -2.15752247814781 -0.18358595619562
 1  15.12317984978498 -2.11489968356836 -1.71435915631563
 1  16.78012607120712 -1.72077600620062 -1.60511262006201
 1  16.30151536123612  1.40368944164416  0.48036145714571
 1  16.44569627162716 -0.10955735143514  1.43600653235324
 1  18.30771996389639 -0.51334829862986 -0.65681168876888
 1  18.01303138433843  0.92814407290729 -1.06015949984999
 1  18.42449113191319  2.40419231883188  0.74564966586659
 1  18.82375865326533  0.99529314061406  1.75264161576158
 1  20.69283935063506  0.46330276607661  0.09620737113711
 1  20.13127996129613  3.07439642454245 -1.12626289578958
 1  21.40587670157016  1.97088296619662 -1.55382663666367
 1  19.92503333653365  1.68733013531353 -2.08304872817282
 1  21.27608762406241  1.59338864266427  1.97300674227423
 1  22.30564520502050  2.07568609980998  0.78040230643064
 1  20.86088862146215  3.03436711291129  1.67941387258726

