%nproc=4
%Mem=2GB
# td=(NStates=1) CAM-B3LYP/6-31G(d,p) 

TD

0 1
12 -7.19205087438744  0.55746398709871  0.11323937253725
 6 -4.93904278537854 -1.90145225652565  0.56807244214421
 6 -4.77143644994499  2.87893222052205  1.30128358555856
 6 -9.44145873467347  3.12675507490749 -0.29980131313131
 6 -9.54908593619362 -1.75420559555956 -0.90009812481248
 7 -5.16176895849585  0.50919217971797  0.84450197059706
 6 -4.38301590689069 -0.68020864126413  0.75073697649765
 6 -2.92435339653965 -0.30773604570457  1.21264670587059
 6 -3.01909219841984  1.07609874237424  1.75183799019902
 6 -4.40176826352635  1.55149552995300  1.24938119931993
 6 -2.99892768376838  1.20857734503450  3.21544507060706
 6 -1.95137941884188 -0.44797880798080 -0.02181285548555
 6 -0.42245049904990 -0.37613584498450  0.38791737463746
 6  0.44768414681468 -0.62091552365237 -0.72212386418642
 8  0.19165971567157 -0.86985838963896 -1.79289857015702
 8  1.81336836183618 -0.52138704550455 -0.28853307340734
 7 -7.22291990049005  2.60605201250125  0.52657781458146
 6 -6.06458358935894  3.37790874477448  0.91265924992499
 6 -6.46435442514252  4.74492512291229  0.90691845634563
 6 -7.73230382578258  4.86822670937094  0.41395830283028
 6 -8.17294784798480  3.50597088838884  0.15393573277328
 6 -5.46862264346435  5.81863295459546  1.28623514871487
 6 -8.62056126852685  5.89998506650665  0.31178120002000
 6 -8.28420761856186  7.20790687498750 -0.14997926022602
 7 -9.09857489318932  0.59022550085009 -0.53258496379638
 6 -9.80968262726273  1.84954563716372 -0.66259138333833
 6 -11.18435317821782  1.45459645004500 -1.06219096869687
 6 -11.23563208390839  0.08663254055406 -1.24912417861786
 6 -9.84419430313031 -0.40822931103110 -0.90088939183918
 6 -12.28444668676868  2.41479376027603 -1.28068859975998
 6 -12.32465251095110 -0.65868693089309 -1.71839701690169
 6 -12.26670300230023 -1.02004588978898 -3.25597370277028
 7 -7.16269252135213 -1.39940930253025 -0.14892801150115
 6 -8.20998622092209 -2.20952689218922 -0.44000180608061
 6 -7.83334100160016 -3.62260644354435 -0.34765319431943
 6 -6.57682320432043 -3.60856517201720 -0.00882337443744
 6 -6.21530630883088 -2.26136229072907  0.29765138653865
 6 -8.74442478717872 -4.81626444534453 -0.71301084808481
 6 -5.33532006970697 -4.37038302360236  0.21491999189919
 8 -5.03376473827383 -5.56853950755075  0.17223325812581
 6 -4.17041045104510 -3.26304923902390  0.44271516351635
 6 -3.53295765996600 -3.69559564416442  1.82686386608661
 8 -3.76247990259026 -3.11457469026903  2.88766248154815
 8 -2.79393074097410 -4.71688984148415  1.65194328232823
 6 -2.03921656015602 -5.17185765506551  2.80214155115512
 6  2.82151592819282 -0.69848910661066 -1.20923629852985
 6  4.16373969636964 -0.48112196159616 -0.55375790449045
 6  5.13064667206721  0.31161448594859 -1.11654155435544
 6  5.08683610021002  1.07494203050305 -2.25368245934593
 6  6.37132358995900  0.29753856075608 -0.31905859205921
 6  7.60446818571857 -0.20629251115112 -1.02754242294229
 6  8.98746782918292 -0.18280801430143 -0.27330992519252
 6  10.22772366536654 -0.59792689098910 -0.93757015141514
 6  10.02550973717372 -2.07367670257026 -1.47937959945995
 6  11.46844796189619 -0.53519441004100 -0.00127992929293
 6  12.84750191919192 -0.68509502540254 -0.73473401320132
 6  14.03111879967997 -0.10844760796080  0.15373258625863
 6  15.35281062506251 -0.16242885458546 -0.47456050635064
 6  15.76191029322932 -1.45250803660366 -0.92293957375738
 6  16.44263751775177  0.38402278837884  0.51072025672567
 6  17.78646435073507  0.69291741754175 -0.10902918281828
 6  18.84024942444244  1.22240408720872  0.82057441914191
 6  20.25579325912591  1.44148989358936  0.33511311491149
 6  20.32666289518952  2.22737838583858 -0.99615543694369
 6  21.04435230933094  2.05333970337034  1.51364806640664
 1 -4.21175143364336  3.70732911461146  1.67698221922192
 1 -10.12374612631263  3.88946653055306 -0.43381768436844
 1 -10.40132939473947 -2.44297435213521 -1.13494704220422
 1 -2.66956564726473 -1.05628529222922  2.09905714431443
 1 -2.35025466346635  1.66683517211721  1.16201056755675
 1 -2.01388511181118  0.87355284428443  3.51649186258626
 1 -3.14667945414541  2.21266072267227  3.55507007450745
 1 -3.72025300650065  0.63380774847485  3.43915780028003
 1 -2.03849637653765 -1.45919183958396 -0.48177316331633
 1 -2.16255045724572  0.12865495679568 -0.74811991359136
 1 -0.12590968496850  0.49377730123012  0.72520477237724
 1 -0.27076303000300 -1.02311528692869  1.32445532143214
 1 -5.05688785648565  6.28291346644665  0.35694747694769
 1 -5.70471514181418  6.62232203100310  1.88175286448645
 1 -4.56812004080408  5.35153032443244  1.93110678937894
 1 -9.72827032593259  5.74945788188819  0.45743358785879
 1 -9.05371601200120  7.96640523002300 -0.11831123782378
 1 -7.32232726932693  7.39533010221022 -0.18040251085109
 1 -12.21177659045905  3.05235254055406 -2.23411971037104
 1 -13.45207042054205  2.20013565166517 -1.33601712541254
 1 -12.35704266566657  3.12343542894289 -0.52135363336334
 1 -12.42394492259226 -1.82857525572557 -1.21719192709271
 1 -13.28764476807681 -0.25228904190419 -1.62624998199820
 1 -13.15906637283728 -1.63388462766277 -3.62560555825582
 1 -12.27060723472347 -0.13679240514051 -3.83807138213821
 1 -11.29752309990999 -1.57672061606161 -3.65725484098410
 1 -9.22229312521252 -4.82441528982898 -1.85353293469347
 1 -8.16188988998900 -5.69728983718372 -0.68940316841684
 1 -9.56330849664966 -4.85657244424442 -0.21622987918792
 1 -3.43345347734774 -3.35089667416742 -0.30143679667967
 1 -1.40248133813381 -4.39382776007601  3.32312899989999
 1 -2.42915810321032 -5.65465610801080  3.78388561066107
 1 -1.26552797929793 -5.97741191829183  2.57158386128613
 1  2.79083375447545 -1.86265595549555 -1.59083315961596
 1  2.64292599279928 -0.13425050665067 -2.11423344314431
 1  4.28908813311331 -1.08185619181918  0.43406578277828
 1  4.15203613991399  1.06338743504350 -2.82959630193019
 1  5.21088438683868  2.22833722392239 -2.20510486508651
 1  5.68369369216922  0.58271860206021 -2.92937423672367
 1  6.60202322562256  1.34906113381338 -0.23395589788979
 1  6.19892324032403 -0.39783303220322  0.70404141124112
 1  7.42289603170317 -1.31509258095810 -1.34260838953895
 1  7.81372290329033  0.23286016251625 -1.92501264816482
 1  9.20511660886089  0.82362497899790  0.26873083558356
 1  8.92240006280628 -0.93721207660766  0.43734835343534
 1  10.56136784828483 -0.08756399009901 -1.83441727232723
 1  9.12896939333933 -2.36753379767977 -2.10608556975698
 1  10.84982806750675 -2.48987550015001 -1.93384957095710
 1  9.96408388198820 -2.65686730933093 -0.60358244894489
 1  11.54130889308931  0.52314672217222  0.84124608800880
 1  11.43211362106211 -1.41784412251225  0.53407088008801
 1  12.91905764146415 -1.57221408280828 -1.20753908880888
 1  12.61752065806581 -0.12232275327533 -1.44316268006801
 1  13.89890139333933  0.86252950845085  0.37205386588659
 1  13.93685977627763 -0.65007744504450  1.08316348604860
 1  15.56166855895590  0.34220408080808 -1.21310096959696
 1  15.97489949094910 -2.19268599449945 -0.08959655725573
 1  15.13564109590959 -1.98061625522552 -1.74302202260226
 1  16.58865692429243 -1.27866179477948 -1.36392850165016
 1  15.93381859155916  1.42688176087609  0.81194461546155
 1  16.24357605960596  0.05736934123412  1.54883781548155
 1  18.21808100000000 -0.24101106490649 -0.53165917351735
 1  17.76636671787179  1.25768702720272 -1.10567405130513
 1  18.25052373517352  2.17994989458946  1.10878597949795
 1  18.73464974237424  0.46767037833783  1.78840519211921
 1  20.61952201890189  0.62580901670167 -0.04871712131213
 1  19.62859969326933  3.38292727762776 -0.86427669716972
 1  21.46448256215622  2.39727560546055 -1.45916717071707
 1  20.06642747594759  1.59332073437344 -1.68935935923592
 1  20.91956197149715  1.51388069186919  2.42561200280028
 1  22.03060770127013  2.27991652285229  1.28895316151615
 1  20.52947548014802  2.99296297249725  1.74723065426543

