%nproc=4
%Mem=2GB
# td=(NStates=1) CAM-B3LYP/6-31G(d,p) 

TD

0 1
12 -7.14084575387539  0.64830307100710  0.05044309290929
 6 -4.84973385448545 -1.96649876117612  0.47154278917892
 6 -4.77334664096410  2.77766209350935  1.18144160136014
 6 -9.43054764356436  3.12401480088009 -0.26966829982998
 6 -9.53540456805680 -1.75223539853985 -0.94526264126413
 7 -5.06378916051605  0.43405466596660  0.71583910431043
 6 -4.33698130343034 -0.74029464986499  0.79360126292629
 6 -2.91539250045005 -0.35294056615662  1.15251069226923
 6 -2.93931422062206  1.05925705820582  1.65208801520152
 6 -4.33448153485349  1.47399778017802  1.16688294949495
 6 -2.75106289728973  1.20887737503750  3.18275180128013
 6 -1.91902618351835 -0.60436444654465  0.05457478327833
 6 -0.45551380538054 -0.57011524292429  0.53211179407941
 6  0.48014739313931 -0.65404883698370 -0.62744439623962
 8  0.23211376107611 -0.92851425522552 -1.76388566886689
 8  1.76696372137214 -0.46164107090709 -0.19373359345935
 7 -7.12381999049905  2.58170957825783  0.37508266506651
 6 -6.01888901990199  3.25449640354035  0.75532351635164
 6 -6.39168715841584  4.72397302770277  0.85834359885989
 6 -7.76837743314331  4.75309519621962  0.43514042104210
 6 -8.13229378257826  3.44275456675668  0.13013335253525
 6 -5.52937871907191  5.86764785608561  1.25574209940994
 6 -8.60039925232523  5.95111017901790  0.26730675257526
 6 -8.20748994679468  7.21523760806081 -0.02890715301530
 7 -9.06872190789079  0.63841031933193 -0.54250595589559
 6 -9.83285494449445  1.80599128172817 -0.56397152135214
 6 -11.26876161906191  1.42631362176218 -0.92042679227923
 6 -11.15030355105510  0.06681055835584 -1.12347161336134
 6 -9.83789367306731 -0.39471795989599 -0.92353165606561
 6 -12.33761200330033  2.39046132703270 -1.12568309920992
 6 -12.31834187988799 -0.69089015121512 -1.69092426962696
 6 -12.33030936293629 -0.84593847904790 -3.22362046744674
 7 -7.16066231833183 -1.41274063566357 -0.11921504020402
 6 -8.28362358465847 -2.21399733923392 -0.55825363126313
 6 -7.73825149264926 -3.59982416531653 -0.57231566056606
 6 -6.50601612361236 -3.60644495999600 -0.12191468356836
 6 -6.21319609780978 -2.27604375887589  0.09668128952895
 6 -8.66598694339434 -4.86339915881588 -0.95876542354235
 6 -5.43579011671167 -4.42670865616562  0.24868336823682
 8 -5.24402576437644 -5.58757141074107  0.15362139693969
 6 -4.16567997799780 -3.33626656075608  0.57257814981498
 6 -3.60838520272027 -3.70779686428643  2.00156133583358
 8 -3.87443109770977 -3.21940517331733  2.97676139143914
 8 -2.72170351825183 -4.74006215871587  1.79423751175118
 6 -2.25076771527153 -5.34510497979798  2.99447078407841
 6  2.79449322592259 -0.53942320002000 -1.25704107900790
 6  4.14486780918092 -0.45089893929393 -0.65725825452545
 6  5.04058766616662  0.50648397289729 -1.07443734393439
 6  4.96300371697170  1.41324586088609 -2.21611870297030
 6  6.41927838543854  0.48052685958596 -0.29554624082408
 6  7.64152189108911 -0.17874975687569 -1.09596926562656
 6  8.86086516891689 -0.02006173967397 -0.23612620682068
 6  10.19778067106711 -0.61657875617562 -0.85884227862786
 6  10.07946513271327 -2.04050338523852 -1.12146380788079
 6  11.40544166126613 -0.21749263986399  0.06661686038604
 6  12.76439360836084 -0.38405492139214 -0.60121066086609
 6  13.94930061786179  0.12538577537754  0.24599181218122
 6  15.29816516051605 -0.12105471717172 -0.52633568386839
 6  15.58096219841984 -1.60080286608661 -0.80830811061106
 6  16.38696195019502  0.40984537063706  0.39543872857286
 6  17.80190589488949  0.63433155895590 -0.23763204310431
 6  18.92298769826983  1.22977482428243  0.76741910361036
 6  20.29585726552655  1.26936268086809  0.33833343694369
 6  20.42742297119712  1.89762541054105 -1.06487230863086
 6  21.23958183228323  1.99523389278928  1.37448415001500
 1 -3.99635989448945  3.45200358205821  1.26296081708171
 1 -10.30988474017402  3.88275585948595 -0.43440774337434
 1 -10.25233449524952 -2.42821287598760 -1.38724227172717
 1 -2.52375106580658 -1.04900456415642  2.01292853145314
 1 -2.09689932793279  1.63347183578358  1.17749211571157
 1 -1.72852657595760  0.61719720872087  3.38435864926493
 1 -2.58282306850685  2.24029348594860  3.52985755325533
 1 -3.68777975917592  0.67574194189419  3.67416130063006
 1 -2.20585311221122 -1.55051097149715 -0.53695868186819
 1 -2.05713991619162  0.05094718601860 -0.78624372597260
 1 -0.00338743274327  0.26608453195320  1.11778403030303
 1 -0.24679063276328 -1.44319729512951  1.33260613651365
 1 -4.97794996269627  6.24960013511351  0.35150693289329
 1 -6.21580625092509  6.62066186498650  1.65999068826883
 1 -4.69150237903790  5.74025919731973  2.14701838053805
 1 -9.63475097399740  5.78841177727773  0.52709055355536
 1 -9.11398203860386  7.77677626712671 -0.14951435813581
 1 -7.18593362996300  7.73679424862486 -0.39290376097610
 1 -11.90550596339634  2.98377568286829 -1.88553485188519
 1 -13.29114432793279  1.99933557165717 -1.54031755545555
 1 -12.53688064946495  3.07368045344534 -0.23855535353535
 1 -12.44837736583658 -1.66881928012801 -1.15548575647565
 1 -13.35478148174817 -0.19449326232623 -1.63941129812981
 1 -13.07210767696770 -1.61744298349835 -3.55603860156016
 1 -12.66723689768977  0.29354062816282 -3.70196777177718
 1 -11.42818616621662 -1.37298024202420 -3.54696381188119
 1 -8.99764065996600 -4.80990383868387 -2.03916149754975
 1 -8.26986068706871 -5.94505461366137 -0.76847107520752
 1 -9.54758692449245 -4.89535632263226 -0.19866812301230
 1 -3.18820895289529 -3.38942052655266 -0.08127478047805
 1 -1.74484557455746 -4.56019439673967  3.33053974097410
 1 -3.09744493189319 -5.60433107550755  3.70401762386239
 1 -1.62275370187019 -6.04709888698870  2.53128983188319
 1  2.64440911201120 -1.53616330623062 -1.89374345064506
 1  2.47751945214522  0.24586750515052 -2.08789080888089
 1  4.27344656895690 -0.84371237743774  0.40883325952595
 1  3.79678061436144  1.34494559085909 -2.60312365466547
 1  5.36888018641864  2.42309669986999 -2.07198155275528
 1  5.19919524232423  1.04570490069007 -3.17146844614461
 1  6.93260628392839  1.37194342204220 -0.04936743904390
 1  6.47148049604960 -0.13669691859186  0.66235724282428
 1  7.32994673677368 -1.20901197289729 -1.03169729842984
 1  7.79712124312431  0.30376725322532 -2.26697684458446
 1  9.03594969216922  1.07361997849785 -0.28736477397740
 1  8.74010183298330 -0.47735609100910  0.71278589718972
 1  10.45971768326833 -0.32643787748775 -1.84625845644564
 1  9.16668316471647 -2.42148919321932 -1.57844280548055
 1  10.87730081478148 -2.37942445504550 -1.74801098709871
 1  10.15812328592859 -2.57612923552355 -0.20180227092709
 1  11.42947770997100  0.77723213071307  0.40144210761076
 1  11.39028943864386 -1.02346468456846  0.95541301430143
 1  12.76785252095210 -1.47736459785979 -1.01609994489449
 1  12.64537344334433  0.10487996699670 -1.64695305910591
 1  13.78581008420842  1.26977023252325  0.57207386788679
 1  14.00262635293529 -0.56395883318332  1.29771494119412
 1  15.26704909700970  0.35790565096510 -1.47334699419942
 1  15.50512251325133 -2.32420914681468  0.05168757115712
 1  14.68040557235724 -1.85973416701670 -1.52880060046005
 1  16.53538159675968 -1.80857478607861 -1.34724683348335
 1  16.16444165386539  1.38607768046805  0.71431485248525
 1  16.53855555755576 -0.15406180188019  1.43753668536854
 1  17.96515570747075 -0.42080904470447 -0.62945895349535
 1  17.59072915411541  1.14560581908191 -1.24714819871987
 1  18.50337902070207  2.12516441604160  0.89180428132813
 1  18.89243552095209  0.68241185248525  1.71224757635764
 1  20.58878894559456  0.31614805060506  0.13396114651465
 1  19.97471430473048  2.79869885478548 -1.08075834533453
 1  21.42748886278628  2.06503238113811 -1.39259051305131
 1  19.94301513471347  1.12079348164817 -1.88742916621662
 1  21.00103011831183  1.55439474327433  2.44209365096510
 1  22.21148578907891  1.95295382658266  0.99574384058406
 1  20.87597012961296  3.16197987418742  1.18277420862086

