%nproc=4
%Mem=2GB
# td=(NStates=1) CAM-B3LYP/6-31G(d,p) 

TD

0 1
12 -7.08768043734373  0.55214345504550  0.05455350395040
 6 -4.93627250835083 -1.94841695299530  0.47912354725473
 6 -4.77627693399340  2.78629295659566  1.12010546774677
 6 -9.48497308610861  3.08094049344934 -0.22891422442244
 6 -9.60566159375938 -1.68439861486149 -0.68556667166717
 7 -5.22340512211221  0.45013627412741  0.62802032243224
 6 -4.36944454975498 -0.70196081648165  0.71949385218522
 6 -2.97497845904590 -0.51348662076208  1.15547098829883
 6 -3.01138142734273  1.01045217771777  1.60925373177318
 6 -4.41187927462746  1.48574895529553  1.12417867906791
 6 -2.93462125312531  1.17219370667067  3.13697722382238
 6 -1.99345362626263 -0.66456046614661 -0.00843151735174
 6 -0.48939719371937 -0.69626785818582  0.40694927782778
 6  0.61088046644664 -0.79824325642564 -0.64446609840984
 8  0.29369991969197 -0.97089849364936 -1.81553083338334
 8  1.85244226922692 -0.59518442524252 -0.18218243834383
 7 -7.07751536003600  2.63395480278028  0.32144730153015
 6 -6.00864799579958  3.34466542044204  0.78045602960296
 6 -6.37562555225523  4.70576120652065  0.80487825232523
 6 -7.76560715611561  4.87119700640064  0.40944785178518
 6 -8.20681123432343  3.44007429872987  0.13546388558856
 6 -5.48613439463946  5.79454054535454  1.20042656785679
 6 -8.61010022242224  6.06209127712771  0.33293331523152
 6 -8.15054425222522  7.32367845214521  0.06692242994299
 7 -9.24910994669467  0.65819229752975 -0.38571027632763
 6 -10.00705236423642  1.79951063366337 -0.53371849604961
 6 -11.18258300120012  1.44335532593259 -1.09371412101210
 6 -11.25651417211721  0.09346322362236 -1.12707197339734
 6 -9.96228611231123 -0.42015050315031 -0.76901620452045
 6 -12.35576381848185  2.29466174707471 -1.44882541344134
 6 -12.47903794949495 -0.83035409760976 -1.76540171737174
 6 -12.27034336633663 -1.05958984418442 -3.20137824322432
 7 -7.22007825992599 -1.40916027762776 -0.15722884158416
 6 -8.35323054535454 -2.21577751725172 -0.35732353825383
 6 -7.92349001650165 -3.56814099699970 -0.37689611861186
 6 -6.50449597159716 -3.52574689018902 -0.08940143224322
 6 -6.18515329352935 -2.14804095859586  0.13838545994599
 6 -8.72559290399040 -4.89837265616562 -0.70718026502650
 6 -5.37955449314931 -4.40333631893189  0.22744124402440
 8 -5.18507986978698 -5.58493114671467  0.27758379317932
 6 -4.22801621162116 -3.26029896399640  0.45201609360936
 6 -3.51368573277328 -3.58677476207621  1.83952513221322
 8 -3.70769442404240 -3.05949918271827  2.88309202450245
 8 -2.62081342924292 -4.60640879337934  1.61295938393839
 6 -2.04843748224822 -5.05240570987099  2.89477081408141
 6  2.90394417101710 -0.62970222792279 -1.22078745364536
 6  4.23738706110611 -0.51001485088509 -0.64186671537154
 6  5.11388499589959  0.48907223172317 -0.94857475767577
 6  5.13693110971097  1.35346988328833 -2.15698278937894
 6  6.44388084568457  0.50978978587859 -0.15569225542554
 6  7.63030076897690 -0.05695757765777 -0.99689935863586
 6  8.92603168556856  0.04154442094209 -0.18952154635464
 6  10.23612450545055 -0.34500159845985 -0.89172556695670
 6  10.14283146934694 -1.83587292219222 -1.50246190769077
 6  11.51763288038804 -0.20021091169117 -0.02227202850285
 6  12.84224139313931 -0.49372588848885 -0.75411595139514
 6  14.02474816261626 -0.19289605280528  0.25065227822782
 6  15.30794613861386 -0.08822143384338 -0.44949800010001
 6  15.70680478267827 -1.55163794959496 -0.94320159996000
 6  16.39230248424842  0.40780516661666  0.42561174587459
 6  17.74588029232923  0.55806393219322 -0.02988126802680
 6  18.73839923942394  1.18367021382138  0.87662002370237
 6  20.17600528032803  1.21504724932493  0.22649225282528
 6  20.16808703760376  2.14331997999800 -0.94340016141614
 6  21.19866774087409  1.61831620102010  1.31950865246525
 1 -3.89326958545855  3.35776415811581  1.50654517551755
 1 -10.28361211291129  3.86793437733773 -0.32223652625262
 1 -10.24749401120112 -2.56036609130913 -0.89908345584558
 1 -2.96502519321932 -1.21116077977798  1.94596183478348
 1 -2.50709034703470  1.61861034963496  1.30735510201020
 1 -1.92805652895290  1.03744923392339  3.63440365376538
 1 -3.12605739193919  2.28474793139314  3.46865143264326
 1 -3.61478245944594  0.34923929162916  3.81666555105511
 1 -2.22274480138014 -1.63581950235023 -0.50843582958296
 1 -2.03554775697570  0.16154824612461 -0.77938303990399
 1 -0.10295738973897  0.23006092959296  0.97661991389139
 1 -0.15923187688769 -1.44824780018002  1.03619649554956
 1 -4.66457862556256  6.17916309140914  0.50567234943494
 1 -6.01444611491149  6.52913271207121  1.62742743194319
 1 -5.06091932073207  5.47913308470847  2.14948862756276
 1 -9.45504300320032  5.91916485258526  1.04100194469447
 1 -8.92936357675767  8.20661925142514  0.14560515381538
 1 -7.18390342694269  7.62678324752475 -0.38742321292129
 1 -11.98340375317532  3.21416872217222 -2.02093839223922
 1 -13.17113232673267  1.76694233233323 -1.68045156885688
 1 -12.73551051245125  2.95631871727173 -0.68028952695270
 1 -12.53439596769677 -1.74780717891789 -1.31235144304430
 1 -13.33633963756376 -0.20963477647765 -1.44788214521452
 1 -12.91896236243624 -1.71104234343434 -3.68626162386239
 1 -12.39129930393039 -0.14383310921092 -3.97522509750975
 1 -11.23141648924893 -1.60145308930893 -3.19923903940394
 1 -9.34490538643864 -4.69790263856386 -1.74636221762176
 1 -8.29080278127813 -5.86851695989599 -0.71541576967697
 1 -9.63499566536654 -5.02223901090109 -0.14413266946695
 1 -3.47068720072007 -3.37163874837484 -0.22398905190519
 1 -1.35031612161216 -4.57825620292029  3.36794348134813
 1 -2.95377056445645 -5.21350199259926  3.46676389848985
 1 -1.38425985248525 -6.05313949104910  2.71543824672467
 1  2.83483815491549 -1.74547423732373 -1.75655973227323
 1  2.57710941114111  0.25449836823682 -1.81088310811081
 1  4.35158438273827 -1.08732673887389  0.14167654385439
 1  4.13755469176918  1.47590868716872 -2.70084342664266
 1  5.33688698709871  2.48012240244024 -1.69079343394339
 1  5.88675399819982  0.90684101430143 -2.93036433573357
 1  6.81110413371337  1.40759698739874  0.19269676737674
 1  6.31863521152115 -0.01107435633563  0.78424943204320
 1  7.59229297139714 -1.17862893459346 -1.10662479117912
 1  7.69921145214522  0.61867874437444 -1.60474062096210
 1  9.24462055925592  1.06852946944694  0.33971793429343
 1  8.94321214401440 -0.69232758815882  0.72719733833383
 1  10.42563427492749  0.28708347464746 -1.64171800240024
 1  9.32636913331333 -1.92186923122312 -2.09260422162216
 1  11.10496358105810 -2.16798331093109 -1.99936612261226
 1  9.92311978557856 -2.52631425402540 -0.49712180288029
 1  11.44861962416242  0.92448685618562  0.34193615701570
 1  11.46546695639564 -0.83990632873287  0.79726719971997
 1  12.93483921962196 -1.64941180258026 -1.04127246214621
 1  12.85384429042904  0.21817129612961 -1.61682004580458
 1  13.80200170337034  0.79181243674367  0.63917057755776
 1  13.91890798109811 -0.85186762406241  1.06414158385839
 1  15.35890828292829  0.48179804020402 -1.36620628012801
 1  15.59111111211121 -2.24264098999900 -0.05460305790579
 1  15.14746227802780 -1.76991518511851 -1.86180390079008
 1  16.79263732233224 -1.62950687928793 -1.28150025882588
 1  16.03416862656265  1.28152722542254  0.91532495349535
 1  16.49183088508851 -0.12344874057406  1.40293322502250
 1  18.09214840674068 -0.48899586338634 -0.29422543014301
 1  17.53531361256126  1.15374663316332 -1.05461894579458
 1  18.33781246404640  2.37258915851585  0.85000010091009
 1  18.90220649804980  0.64789840114011  2.00881723332333
 1  20.43730379707971  0.12268870467047  0.01373912431243
 1  19.90922775607561  3.09910889578958 -0.58683895339534
 1  21.13448956285628  2.33638951685169 -1.50613186718672
 1  19.65001583478348  1.68223962626263 -1.79008943224322
 1  21.17102711801180  0.96567587138714  2.23469291089109
 1  22.17791243174317  1.64669320052005  0.83712797899790
 1  20.95730826342634  2.49334301050105  1.60855678687869

