%nproc=4
%Mem=2GB
# td=(NStates=1) CAM-B3LYP/6-31G(d,p) 

TD

0 1
12 -7.14610627992799  0.68214645534553  0.02061010961096
 6 -4.79472835393539 -1.96083819511951  0.44177981288129
 6 -4.86322562886289  2.80968529582958  1.22542599979998
 6 -9.52308689748975  3.11628402780278 -0.24689602260226
 6 -9.43565459305931 -1.72250242524252 -0.93446156115612
 7 -5.15212799439944  0.41673293379338  0.66458397879788
 6 -4.32124973027303 -0.67815843624362  0.74035593839384
 6 -3.02498345954595 -0.33389866196620  1.20949639083908
 6 -3.05515580478048  1.06701783428343  1.74552735913591
 6 -4.41939002570257  1.53749412981298  1.15929219041904
 6 -2.97821561256126  1.26673316061606  3.13681720782078
 6 -1.96047032793279 -0.51672568266827  0.07968729452945
 6 -0.51601985598560 -0.43143137453745  0.46081466436644
 6  0.47245662406241 -0.61824525662566 -0.61571322312231
 8  0.22987353705371 -1.01475287908791 -1.72455173547355
 8  1.79945697069707 -0.46496140294029 -0.15371959205921
 7 -7.16542415091509  2.56528793609361  0.41545670247025
 6 -6.12806993799380  3.26938789268927  0.82219020302030
 6 -6.44718270797080  4.73883451385139  0.81724948944894
 6 -7.79150974637464  4.78062794949495  0.51782868986899
 6 -8.20815136833683  3.43018330963096  0.19420976017602
 6 -5.53047882908291  5.75176626792679  1.30399692489249
 6 -8.68668788118812  5.93646871487149  0.20380040194019
 6 -8.26350554835484  7.19911599589959 -0.09679394169417
 7 -9.12106714241424  0.66553303160316 -0.52438414371437
 6 -9.88150980998100  1.77877856045605 -0.45717084128413
 6 -11.16637138003800  1.41643263366337 -1.12892764236424
 6 -11.18578709940994  0.04315819311931 -1.19132839903990
 6 -9.86246613031303 -0.42176066416642 -0.88715801870187
 6 -12.32604084618462  2.44193647454745 -1.16127665856586
 6 -12.38648869456946 -0.82164322652265 -1.67934311151115
 6 -12.28048438043805 -1.02960684588459 -3.24940304570457
 7 -7.15310156225623 -1.34849421102110 -0.18309142784278
 6 -8.23412863516352 -2.19630557005701 -0.57695550145014
 6 -7.76474414191419 -3.51920610351035 -0.55939436843684
 6 -6.48541406340634 -3.50798511401140 -0.17179967206721
 6 -6.10307508570857 -2.17855400990099  0.01534315571557
 6 -8.55450579527953 -4.87031985088509 -0.82323187018702
 6 -5.23790032773277 -4.29366535183518  0.18511701160116
 8 -5.05812717451745 -5.54511716531653  0.12401843664366
 6 -4.15054846484648 -3.27391032513251  0.45537642964296
 6 -3.50276464066407 -3.65387147174717  1.77936911661166
 8 -3.69891354595460 -3.01613484628463  2.84962867816782
 8 -2.73169451735174 -4.68387654015402  1.73379146714671
 6 -2.09192183068307 -5.15942641194119  2.95831716871687
 6  2.79010278687869 -0.75218447614761 -1.11756713161316
 6  4.10829415181518 -0.51280512991299 -0.43303583228323
 6  5.16580018741874  0.33581690619062 -0.87386728692869
 6  5.02331974857486  1.37839237553755 -1.96118320942094
 6  6.47445390299030  0.39050785768577 -0.00520720692069
 6  7.59625736463646  0.03943206130613 -0.78282795149515
 6  8.94330341274127 -0.21423115661566  0.03125053085309
 6  10.15032592559256 -0.51250834913491 -0.84681107550755
 6  10.06607379357936 -1.96858619351935 -1.41039270077008
 6  11.43090420752075 -0.40733162376238  0.03173337203720
 6  12.80499766876688 -0.48926544244424 -0.73586412621262
 6  13.87439312711271 -0.07780454365437  0.21020823382338
 6  15.27336268026803 -0.20703331503150 -0.46196924722472
 6  15.62681678387839 -1.61639442524252 -0.91326860666067
 6  16.45896915091509  0.31120550665066  0.54199338403840
 6  17.78109381368137  0.35816394219422 -0.21700998089809
 6  18.77184258375838  1.20475232203220  0.59145150685069
 6  20.26994467426743  1.34459020362036  0.07024662826283
 6  20.42821305020502  2.15820146814681 -1.16133195459546
 6  21.21586946104610  1.98148251765177  1.21157785938594
 1 -4.25941620012001  3.38591697339734  1.55491001200120
 1 -10.11876562826283  3.97890547444745 -0.42837714031403
 1 -10.37528679047905 -2.36127618231823 -1.32012556005601
 1 -2.72881157185719 -1.12932259595960  1.94718195679568
 1 -2.22405204320432  1.69590807940794  1.18601296779678
 1 -1.99570329362936  1.12056754575458  3.45169538293829
 1 -3.22757754395440  2.26006546314632  3.51341590909091
 1 -3.58504948614861  0.64337870557056  3.86754063856386
 1 -2.17741026792679 -1.51478739913991 -0.33840882688269
 1 -2.06798100030003  0.01946403770377 -0.66155125672567
 1 -0.25581267526753  0.46696461996200  0.87837008890889
 1 -0.19538549224922 -1.27477045244524  1.26916979287929
 1 -4.89891205890589  5.99403457855786  0.59890167236724
 1 -6.17713238353835  6.56454625342534  1.60181487068707
 1 -4.99047227602760  5.50500567196720  2.01413509220922
 1 -9.81048854775477  5.78921185728573  0.41651949644965
 1 -9.03042368276828  7.90925951545155 -0.24908431513151
 1 -7.20480551715171  7.63944451365137 -0.42242671327133
 1 -12.26421183398340  3.01507881318132 -2.23326962536254
 1 -13.23674888838884  1.85893153125312 -1.32282580628063
 1 -12.13771073247325  3.09720280568057 -0.20460195819582
 1 -12.53000552865286 -1.70561295949595 -1.03878408630863
 1 -13.30212621622162 -0.30306411941194 -1.49766712371237
 1 -13.01084155035504 -1.75925716491649 -3.49054205190519
 1 -12.72597277127713 -0.17214594049405 -3.79279685468547
 1 -11.21204455205521 -1.37604054805481 -3.48180729622962
 1 -9.08399929582958 -5.01633448174817 -1.90073765516552
 1 -7.93094679567957 -5.76439654785479 -0.77547177527753
 1 -9.51576374217422 -4.97303409040904 -0.12727098329833
 1 -3.33639377137714 -3.46888847334733 -0.35076172917292
 1 -1.54100519051905 -4.15606398369837  3.49528621562156
 1 -2.87208239563956 -5.43982462486249  3.53234045614562
 1 -1.46078750525053 -5.93895807290729  2.77644434733473
 1  2.72416708780878 -1.78347803770377 -1.31759583588359
 1  2.56120782098210 -0.08048513011301 -1.95746776657666
 1  4.34239346364637 -1.19951795799580  0.47926030223022
 1  3.92941387768777  1.02275337163716 -2.35988933123312
 1  5.05006830523052  2.35223961416142 -1.48802315691569
 1  5.76885220802080  1.04427475767577 -2.81306260556056
 1  6.55731875517552  1.23165939363936  0.25359285698570
 1  6.28528187618762 -0.19994324322432  0.77852885998600
 1  7.32758650075007 -1.02168324002400 -1.40986511521152
 1  7.82177370837084  0.71606848334833 -1.67360750765077
 1  9.21493759095910  0.65309792629263  0.56960092259226
 1  8.74518234103410 -0.80441879727973  1.04634925352535
 1  10.37366907840784  0.13055782208221 -1.67246107670767
 1  9.08322481888189 -2.05500254455446 -2.05726068726873
 1  10.87537062176218 -2.13463997659766 -2.14804099009901
 1  9.93645111871187 -2.54665628822882 -0.60653274397440
 1  11.40666542874287  0.61561596909691  0.63890585398540
 1  11.34648505820582 -0.99871220932093  0.84948242124212
 1  12.82780851655166 -1.42414927632763 -1.12782111701170
 1  12.80440934693469  0.30550002900290 -1.64477284108411
 1  13.66325782898290  1.09339259475948  0.44945160566057
 1  13.79926601690169 -0.80738317561756  1.17802297199720
 1  15.17654004610461  0.36165602600260 -1.40035969546955
 1  15.68459046004600 -2.36820354625463 -0.24901249884989
 1  15.02512004380438 -1.94458265186519 -1.68472619301930
 1  16.74871292989299 -1.68903283188319 -1.16747885668567
 1  16.15145035473547  1.32928200090009  0.89581300230023
 1  16.48001970397040 -0.32469886558656  1.30104303600360
 1  18.13633282518252 -0.76331329512951 -0.33533954155416
 1  17.34939502070207  0.79807106560656 -1.13448693259326
 1  18.39981866466647  2.08891079067907  0.77232233313331
 1  19.04980125752575  0.57031064236424  1.64769112071207
 1  20.53817388408841  0.27131356715672 -0.29518176777678
 1  19.91458829212921  2.98269725462546 -0.90445071457146
 1  21.67195330923093  2.31799767766777 -1.27344859885989
 1  20.11530236343634  1.58422982528253 -2.09399982328233
 1  21.19111912721272  1.68418772257226  2.09335877747775
 1  22.29068370887089  1.80815934713471  0.93711797799780
 1  21.11017354995500  2.97779145534554  1.27283321452145

