%nproc=4
%Mem=2GB
# td=(NStates=1) CAM-B3LYP/6-31G(d,p) 

TD

0 1
12 -7.14030569986999  0.60411865256526  0.02843089168917
 6 -4.90357923902390 -1.98428053935394  0.56347198209821
 6 -4.90075938223822  2.72418674597460  1.25220867806781
 6 -9.38462305110511  3.09184158355836 -0.43849518251825
 6 -9.56679770737074 -1.73042321732173 -0.85399351435144
 7 -5.06067884948495  0.45754701520152  0.74109162956296
 6 -4.34981258655866 -0.75920654105411  0.87588949174918
 6 -2.90685164636464 -0.39463473557356  1.32150759195920
 6 -3.04924521372137  1.06374750725072  1.76337914431443
 6 -4.43638172487249  1.39298967936794  1.21564782598260
 6 -3.00953874487449  1.37087357465747  3.27419094519452
 6 -1.89535381628163 -0.54453846394639  0.12159148494849
 6 -0.38382663666367 -0.38312654405441  0.50932951585159
 6  0.57123650205021 -0.64226765886589 -0.66003765556556
 8  0.21596214591459 -1.06076748054805 -1.71512079237924
 8  1.82043906890689 -0.40578548534853 -0.24738895899590
 7 -7.21293890239024  2.59857126442644  0.42159731653165
 6 -6.08462559355936  3.37854880878088  0.84229221322132
 6 -6.47622561226123  4.77306793719372  0.77890565506551
 6 -7.74339493489349  4.82997288398840  0.37927483448345
 6 -8.20067062026203  3.46924721602160  0.15599593879388
 6 -5.59779556075607  5.85884697599760  1.48777530273027
 6 -8.66995620802080  6.01543661166117  0.24728475037504
 6 -8.17993719151915  7.29273535783578  0.14652038973897
 7 -9.16293132883288  0.69100557885789 -0.56388809410941
 6 -9.96091775077508  1.81012169476948 -0.62272739693969
 6 -11.24228897179718  1.46354734513451 -1.10311506110611
 6 -11.25246376707671  0.09462333963396 -1.23810307650765
 6 -10.01208109180918 -0.39211769986999 -0.80416971987199
 6 -12.35215345744574  2.38635091599160 -1.38463899479948
 6 -12.42986303200320 -0.73191425362536 -1.73442862006201
 6 -12.24305063706371 -1.06773065826583 -3.09271737713771
 7 -7.23773002510251 -1.43847320892089 -0.32141526022602
 6 -8.23223844614462 -2.26238217771777 -0.69314712061206
 6 -7.82838050555055 -3.63596777967797 -0.53510193919392
 6 -6.48700422242224 -3.58639295479548 -0.14915740784078
 6 -6.13979875807581 -2.15403155765576 -0.02871124972497
 6 -8.63177352205220 -4.88042086098610 -0.91670121712171
 6 -5.25654219191919 -4.34296028132813  0.11740023992399
 8 -5.09878123992399 -5.57635028862886  0.13859989478948
 6 -4.24394780478048 -3.32613554765477  0.62809370137014
 6 -3.66446081028103 -3.70943702830283  1.99886106580658
 8 -3.82049570417042 -3.08804203700370  2.99920363566357
 8 -2.85155650355036 -4.79591774427443  1.89228731673167
 6 -2.29276191469147 -5.35062553185319  3.14266560356036
 6  2.80751452805280 -0.65068432613261 -1.23505888078808
 6  4.16767008940894 -0.54272812221222 -0.78934146284628
 6  5.08908251565157  0.33195652015202 -1.10232013221322
 6  5.00482789938994  1.37557209350935 -2.25114220532053
 6  6.44180063766377  0.39453826072607 -0.33117980418042
 6  7.68510624952495 -0.18019990189019 -1.09830949964996
 6  8.94001308370837 -0.01040077357736 -0.22894548874888
 6  10.23712460546055 -0.51910900920092 -0.90137653205321
 6  10.06223340954095 -1.98096743164316 -1.23303496499650
 6  11.55799691679168 -0.22950384098410 -0.01396119741974
 6  12.80543771277128 -0.50423693959396 -0.69024956475648
 6  14.06344203200320  0.00323356015602  0.10132734573457
 6  15.41363670767077 -0.01366397809781 -0.51598464876488
 6  15.81297539973997 -1.50014280008001 -0.88998627842784
 6  16.35547880188019  0.56499088518852  0.33663284798480
 6  17.94223992829283  0.39117724352435 -0.11389966986699
 6  18.81045644514452  1.17037888468847  0.84229659135914
 6  20.26221390119012  1.24451019561956  0.29135873947395
 6  20.47092732163216  2.12968861686169 -0.92349817121712
 6  21.31492936703670  1.75180955035504  1.24967166876688
 1 -3.96626688518852  3.53260164186419  1.25842036303630
 1 -10.02447619931993  3.83446103000300 -0.78951325392539
 1 -10.29046830863086 -2.61578163286329 -1.06707025452545
 1 -2.51767045774577 -1.13122278597860  1.94376161476148
 1 -2.24716435443544  1.63824231283128  1.25479984648465
 1 -2.00261398469847  1.12266775577558  3.61801201460146
 1 -3.34026881308131  2.31837129372937  3.44145871337134
 1 -3.60640162136214  0.46033040074007  3.95305919041904
 1 -1.90209273617362 -1.52142806320632 -0.20857584358436
 1 -2.04306850905090  0.01504359565957 -0.56763186478648
 1 -0.32178927292729  0.83090101360136  0.77470972287229
 1 -0.19051500520052 -1.11239421482148  1.30960383628363
 1 -4.67464963266327  6.22855803090309  0.81954373657366
 1 -5.93284795509551  6.81753155195520  1.84311900110011
 1 -4.86620984978498  5.22184735613561  2.18944262296230
 1 -9.77365486438644  5.64704764086409  0.35594343884388
 1 -8.74936557695770  8.20774936443644  0.08264885818582
 1 -7.12879791639164  7.45237580678068  0.51662719211921
 1 -12.23250866366637  3.01340864616462 -2.41663796219622
 1 -13.27576278977898  1.93978961706171 -1.42145566926693
 1 -12.59000596199620  3.18372145754575 -0.73831532953295
 1 -12.55013754185418 -1.54488688688869 -0.97007721562156
 1 -13.38847485108511 -0.21989580258026 -1.47172452945294
 1 -12.97926839303930 -1.72763400260026 -3.35821881958196
 1 -12.25545571957196 -0.16552527842784 -3.84840241524152
 1 -11.20217356495650 -1.45059800380038 -3.52728184368437
 1 -8.85514641054105 -4.81580442874287 -1.98766634803480
 1 -7.93174687568757 -5.77784789298930 -0.64946917501750
 1 -9.71000316611661 -5.07471425842584 -0.23404166036604
 1 -3.45948608060806 -3.39461104560456 -0.16129278227823
 1 -1.60001109110911 -4.60706908420842  3.71638832583258
 1 -3.00696588398840 -5.89406004840484  3.89741696379638
 1 -1.67829925642564 -6.13039721682168  2.84473117601760
 1  2.47516218731873 -1.66563625352535 -1.65958003430343
 1  2.51585328552855  0.11906482488249 -2.04415643544354
 1  4.28880810511051 -1.20466847304730  0.06117849404940
 1  4.13866480278028  1.24307540384038 -2.54231757405741
 1  5.23984728312831  2.35907029722972 -1.93725808040804
 1  5.80634595739574  0.84854518471847 -2.95586688598860
 1  6.67436045934593  1.42763899159916  0.12398989668967
 1  6.21771511951195 -0.22179542844284  0.59432043914391
 1  7.56199994209421 -1.25054612631263 -1.49467359605961
 1  7.44325585658566  0.62671954845485 -1.95291543844384
 1  8.93212931013101  0.98732134863486  0.15246920942094
 1  8.78843666646665 -0.54880323572357  0.73988860746075
 1  10.42085379687969  0.06689145544554 -1.90275410601060
 1  9.22688918531853 -2.30362740704070 -1.90485544674467
 1  10.92856594129413 -2.36064257685769 -1.76418260426043
 1  10.03373084668467 -2.45355697829783 -0.28783087378738
 1  11.43424818701870  0.80702511001100  0.43073503690369
 1  11.48251866156616 -1.06114845294529  0.84829230223022
 1  13.05548128382838 -1.48666552795280 -0.82419075397540
 1  12.87648655465547 -0.24376489748975 -1.76624498829883
 1  14.07106861006101  1.23190644614461  0.23855051555156
 1  13.88344443474347 -0.40370280758076  1.18148331803180
 1  15.13693608570857  0.65840570097010 -1.40019967946795
 1  15.92052405340534 -2.20161688758876  0.09718212061206
 1  14.86587411921192 -1.83214140774077 -1.42229995039504
 1  16.66909496809681 -1.25666959555956 -1.56363847264727
 1  16.24596980668067  1.75149422212221  0.16102952395240
 1  16.18067976997700  0.28492209650965  1.55598853055306
 1  18.27964715661566 -0.68656562036204 -0.26036204380438
 1  17.86916699789979  0.66725798429843 -1.16701018491849
 1  18.48848753155315  2.15006690629063  0.94654975587559
 1  18.85933221062106  0.63824743604360  1.74832118371837
 1  20.44412447914791  0.12843927972797 -0.00697294689469
 1  20.15501233453346  3.09733871877188 -0.84433470297030
 1  21.40290640454045  2.03120899879988 -1.25313656765677
 1  19.80245107830783  1.94653605590559 -1.68903932723272
 1  21.23756377167717  1.21571087488749  2.15412485408541
 1  22.31851649214921  1.56525505670567  0.88366263246325
 1  21.24201673427343  2.92315599179918  1.44127005820582

