%nproc=4
%Mem=2GB
# td=(NStates=1) CAM-B3LYP/6-31G(d,p) 

TD

0 1
12 -7.12783445274527  0.63349158985899  0.09839788838884
 6 -4.83427230833083 -1.93830594189419  0.46073170807081
 6 -4.80253956025603  2.80913524082408  1.22487594479448
 6 -9.40306489528953  3.11048344774477 -0.31645297829783
 6 -9.60749177677768 -1.70584075907591 -0.83817193219322
 7 -5.14619740134013  0.47571883238324  0.71510903130313
 6 -4.40465807110711 -0.58093871427143  0.79759166196620
 6 -2.91032199339934 -0.36176144824482  1.18047348854885
 6 -2.95580586978698  1.07368850135014  1.57166997339734
 6 -4.39423751045105  1.51022140254025  1.08329459065907
 6 -2.80832862386239  1.43384987228723  3.14327785388539
 6 -1.96363064396440 -0.57589159925993  0.10569989578958
 6 -0.53699195319532 -0.46548477987799  0.36163474637464
 6  0.50154953335334 -0.76657008910891 -0.72688434023402
 8  0.22686323602360 -1.14682608640864 -1.82483176347635
 8  1.75745277027703 -0.55735064186419 -0.23960818091809
 7 -7.06382399089909  2.56844825212521  0.28372352915292
 6 -6.03967109810981  3.27829878377838  0.77385536953695
 6 -6.39895788548855  4.75308593899390  0.90813857835784
 6 -7.64791538693869  4.81035092179218  0.43015992299230
 6 -8.11119167236724  3.48577886918692  0.04846518571857
 6 -5.47776355755576  5.72096318761876  1.46026255145515
 6 -8.57455666806681  6.04655972397240  0.29933995589559
 6 -8.18252745054505  7.32704878917892  0.04092983068307
 7 -9.13993902960296  0.78848532683268 -0.56814852015202
 6 -9.93287494649465  1.87909859245925 -0.61032615681568
 6 -11.24169891279128  1.57505849624963 -1.09768451805180
 6 -11.28630715141514  0.05496937423742 -1.17937720392039
 6 -9.96360624432443 -0.29817830593059 -0.84273357625763
 6 -12.35290353245325  2.54787706860686 -1.35457598849885
 6 -12.38221826752675 -0.77733879607961 -1.56159133633363
 6 -12.25420175217522 -1.18620250545055 -3.01281938733873
 7 -7.27442369446945 -1.40775013661366 -0.09367248594859
 6 -8.23827905020502 -2.22761870137014 -0.53424123002300
 6 -7.76414408190819 -3.58408259115912 -0.60004843384338
 6 -6.50846636863686 -3.51197551305131 -0.00226271837184
 6 -6.24880965916592 -2.20520667516752  0.21187280868087
 6 -8.52540288498850 -4.91076389528953 -0.83542308930893
 6 -5.30458699639964 -4.35226121142114  0.18893739363936
 8 -5.17781914371437 -5.58191084468447  0.22536857165717
 6 -4.18213162316232 -3.30953388748875  0.54933582558256
 6 -3.48244260846085 -3.64060014461446  1.77025820552055
 8 -3.56496015061506 -3.23395662846285  2.94100781608161
 8 -2.60678202610261 -4.78240639313931  1.49826791479148
 6 -1.99722236073607 -5.28126859615962  2.67510884788479
 6  2.76581035763576 -0.80780003770377 -1.23698907380738
 6  4.06076939933993 -0.57896174557456 -0.55726825552555
 6  5.06309991739174  0.29955327982798 -0.84395429562956
 6  4.99813723032303  1.25166970327033 -2.06296338743874
 6  6.34800125772577  0.42537134403440 -0.13894058025803
 6  7.58470620952095 -0.19768165006501 -0.86828649734973
 6  8.85434451685169 -0.05406514001400 -0.08812140634063
 6  10.10962185518552 -0.63763086138614 -0.77014340874087
 6  10.01923911011101 -2.06675601050105 -1.15303696519652
 6  11.39652076917692 -0.21047193779378  0.06887708640864
 6  12.77508467746775 -0.45972248814881 -0.58699923972397
 6  13.96831251905191 -0.05758252145215  0.29498671167117
 6  15.29026437043704 -0.17432004370437 -0.42507555785579
 6  15.63013711591159 -1.59791257705771 -0.98721600140014
 6  16.40779403340334  0.39560394649465  0.42094127882788
 6  17.82540824512451  0.54132225802580 -0.26273455335534
 6  18.74013941344134  1.41133298009801  0.60034239593959
 6  20.15472315211521  1.38211395599560  0.23140274387439
 6  20.50905113401340  2.18488413641364 -1.08128394979498
 6  21.01835971007101  1.99936430583058  1.37264396599660
 1 -4.13160341884188  3.42655103680368  1.59166368736874
 1 -10.00925467716772  3.97532511641164 -0.63778808140814
 1 -10.36028529032903 -2.60340039473947 -0.88413196069607
 1 -2.46655534623462 -0.94845450915091  1.99781702030203
 1 -2.39225886388639  1.66914540314031  1.00377474397440
 1 -1.90501422472247  1.00289577857786  3.38134834823482
 1 -2.88633341954195  2.43261271787179  3.44728929642964
 1 -3.47341832303230  0.81711607930793  3.65419930443044
 1 -2.22053458035804 -1.67119303970397 -0.42146713271327
 1 -2.32238644084408 -0.13273118181818 -0.86819192079208
 1 -0.11825891989199  0.41463938743874  0.50546279817982
 1 -0.05887184088409 -1.23197617301730  1.23300617651765
 1 -4.78038020572057  6.22701787688769  0.61106288848885
 1 -6.05929059935994  6.66861666046605  1.74275896509651
 1 -4.74820804960496  5.42729790119012  2.22347602630263
 1 -9.57100459935994  5.58815175127513  0.41940978547855
 1 -8.94412505290529  8.21980056955696 -0.10097950465046
 1 -7.13535857245725  7.68402897209721 -0.28836330693069
 1 -12.16576198899890  3.00103740904090 -2.36236253465347
 1 -13.55788100160016  2.14448008610861 -1.54190771447145
 1 -12.32343930533053  3.28669175457546 -0.59509100710071
 1 -12.22045457355735 -1.57594999319932 -1.04847505540554
 1 -13.14369037263726 -0.12181599459946 -1.21489884688469
 1 -13.10892135833583 -1.72795403460346 -3.57916091379138
 1 -12.30651082508251 -0.27642636853685 -3.66503407840784
 1 -11.22637598519852 -1.62596554055406 -3.13442255775578
 1 -9.20834173007301 -4.77758060636063 -1.81811939333933
 1 -7.78240194119412 -5.75512562076208 -0.60762499059906
 1 -9.35193735953595 -4.86112289928993 -0.16189444564456
 1 -3.48091822382238 -3.35012659715972 -0.31878853185319
 1 -1.30777186718672 -4.67417579487949  3.35733242024202
 1 -2.75479066646665 -5.75492613501350  3.34318154025403
 1 -1.18567999449945 -6.07438161526153  2.39252595549555
 1  2.82075674677468 -1.84468415831583 -1.68854293059306
 1  2.58347004720472 -0.18270535213521 -2.16537855765577
 1  4.38144736903690 -1.35128313451345  0.24762713891389
 1  3.87553849014901  1.28848994529453 -2.40999434173417
 1  5.26826012441244  2.24549894009401 -1.67791214581458
 1  5.53849917271727  1.00364069426943 -2.93415471477148
 1  6.76422944624462  1.40067629532953  0.17781527922792
 1  6.39077242524252 -0.24093734263426  0.67784879197920
 1  7.38783252535254 -1.24870594229423 -1.27750187888789
 1  7.64336586758676  0.40922779927993 -1.83155330223022
 1  9.24091018821882  0.88646126262626  0.05468943144314
 1  8.67027485028503 -0.47510586598660  0.82449706830683
 1  10.12387409890989 -0.03203843754375 -1.71129496009601
 1  9.12321881828183 -2.09765680998100 -1.71072603380338
 1  11.07990107480748 -2.40360687328733 -1.59475566156616
 1  10.03238071167117 -2.61959358195820 -0.33309540024002
 1  11.35005976817682  0.66225063256326  0.47496946034603
 1  11.37320773047305 -0.78418075617562  0.90152762576258
 1  12.79224496019602 -1.57810467186719 -0.92650098499850
 1  12.78510741674167  0.01326080508051 -1.59163752755276
 1  13.83016451965197  0.92692594809481  0.68972563306331
 1  14.26482257255726 -0.72116455375538  1.24752992269227
 1  15.39989238133813  0.29467932833283 -1.41700135963596
 1  15.85959796079608 -2.38656538243824 -0.02985058265827
 1  14.88758629042904 -1.85005319891989 -1.67557527792779
 1  16.52459051765177 -1.82903683228323 -1.62741485028503
 1  16.11118632833283  1.31206027872787  0.76366978797880
 1  16.39566126812682 -0.41358775447545  1.27196012771277
 1  18.22023121502150 -0.48167513131313 -0.16767277487749
 1  17.84612469366937  0.97112837133713 -1.32478596249625
 1  18.24194287708771  2.36264816441644  0.57476257715772
 1  18.52639891729173  1.03045665696570  1.66462281388139
 1  20.31462152885288  0.25452188798880  0.23645139553955
 1  19.96215304860486  3.06360534543454 -1.06069633913391
 1  21.60703681758176  2.28997487538754 -1.19024027802780
 1  20.08703953715371  1.52962436473647 -2.08069849314931
 1  20.93537355265526  1.21649095289529  2.22578201980198
 1  22.05777041754175  2.10456898809881  0.96503076927693
 1  20.66182871547155  2.99671334753475  1.60824675587559

