%nproc=4
%Mem=2GB
# td=(NStates=1) CAM-B3LYP/6-31G(d,p) 

TD

0 1
12 -7.16629829912991  0.59546778747875  0.14412246084608
 6 -4.75778465956596 -1.94780689198920  0.33859949484948
 6 -4.83649295559556  2.82731705900590  1.06357981518152
 6 -9.54469905870587  3.08278067746775 -0.25529686268627
 6 -9.54036506410641 -1.74639481448145 -0.98698681368137
 7 -5.04050683228323  0.44400566106611  0.66239375977598
 6 -4.30386799209921 -0.75269588998900  0.73209511231123
 6 -2.92120308150815 -0.29700497259726  1.14371981318132
 6 -3.05525581478148  1.16956808930893  1.52525533193319
 6 -4.39622770947095  1.53327370777078  1.12190845204520
 6 -2.83731152215221  1.40881736903690  2.99075260136014
 6 -1.86806108700870 -0.54585859595960 -0.04510518471847
 6 -0.37932618661866 -0.33117134853485  0.43659224212421
 6  0.46311568996900 -0.66339977207721 -0.65322697449745
 8  0.25575612531253 -0.91352275607561 -1.72801208150815
 8  1.72290931593159 -0.64215912271227 -0.18466268636864
 7 -7.20313792229223  2.55038644594459  0.26971212801280
 6 -6.08042517351735  3.33106406030603  0.78088607260726
 6 -6.52818080778078  4.72531316171617  0.92774053855386
 6 -7.84376497189719  4.80357024372437  0.60497740474047
 6 -8.23054360756075  3.50972126342634  0.14588492769277
 6 -5.64084986618662  5.88484957625762  1.53720024522452
 6 -8.77408662106211  5.99320438843884  0.47615763766377
 6 -8.46162536033603  7.28600468476848  0.32246798449845
 7 -9.18465350105011  0.63490996929693 -0.54260596589659
 6 -9.91110276927693  1.79437011961196 -0.69215433963396
 6 -11.27529227212721  1.43428441884188 -1.04060881048105
 6 -11.32850137083708  0.05189906720672 -1.20229949614961
 6 -9.98289817351735 -0.37022551065107 -0.93873317621762
 6 -12.34003224532453  2.54148642954295 -1.30220075097510
 6 -12.48823886958696 -0.81028209040904 -1.78401357855786
 6 -12.27554388638864 -1.11157504270427 -3.32687079247925
 7 -7.13596984908491 -1.36802616421642 -0.23231635033503
 6 -8.23726894919492 -2.24722066156616 -0.54604241014101
 6 -7.84481214871487 -3.61104528742874 -0.50930935993599
 6 -6.46302182418242 -3.56289060456046 -0.08360085218522
 6 -6.11565634383438 -2.14671082558256  0.02933455485549
 6 -8.53995434013401 -4.76870968986899 -0.73428297529753
 6 -5.31889842754275 -4.29148513381338  0.16783528342834
 8 -5.20281164296430 -5.54361701530153  0.27539357415742
 6 -4.10071348134813 -3.20080301440144  0.55006589858986
 6 -3.58229259345935 -3.63901998659866  1.86124730443044
 8 -3.76627028162816 -3.09672290509051  2.92441615691569
 8 -2.68007935583558 -4.62957110961096  1.73084117211721
 6 -2.01437407590759 -5.02583305260526  2.99515085208521
 6  2.84934871147115 -0.73388264596460 -1.15470084498450
 6  4.14281760416042 -0.45040889028903 -0.35330785948595
 6  5.13910751815181  0.25995932043204 -0.89746964716472
 6  5.06644406100610  1.03472800910091 -2.09424651575158
 6  6.54999145674567  0.35661446834683 -0.25301198739874
 6  7.62770050895089 -0.35915779767977 -1.03578324702470
 6  8.94564364676468 -0.23870360386039 -0.27030962516252
 6  10.21552244524452 -0.65564266256626 -0.88329472387239
 6  10.21109829602960 -2.11588092299230 -1.43413507500750
 6  11.45044616171617 -0.42632352295229 -0.04070387168717
 6  12.83466063506351 -0.62632914881488 -0.55566610641064
 6  13.98692438023802 -0.13241000420042  0.32666987998800
 6  15.41701704570457 -0.16850946264626 -0.43641669196920
 6  15.74743884608461 -1.51451423722372 -0.96394367416742
 6  16.51931518551855  0.39562394849485  0.46608579327933
 6  17.85701140544055  0.56421454725473 -0.10429870977098
 6  18.75888128762876  1.27603945074507  0.70477283898390
 6  20.20813849364936  1.39154489908991  0.22994259785979
 6  20.30668089698970  2.09214486248625 -1.06873269466947
 6  21.10195806990699  2.09026339573957  1.25871257285729
 1 -4.08102836133613  3.49599798149815  1.71513603460346
 1 -10.21951570327033  3.81479906380638 -0.32756705930593
 1 -10.31572083388339 -2.43519357405741 -0.90434398189819
 1 -2.73284197489749 -0.96783644734473  1.88586582518252
 1 -2.25162480048005  1.69004749334934  0.86962132863286
 1 -1.82024574787479  1.32921841084108  3.40041025442544
 1 -2.99852463866387  2.47961741834183  3.25761032853285
 1 -3.39241022222222  0.75974034173417  3.47662154665467
 1 -2.10744327122712 -1.56002192259226 -0.20384537053705
 1 -2.14751895409541 -0.06503441214121 -0.91188629022902
 1 -0.17940503450345  0.56075399889989  0.81458371027103
 1 -0.24265021872187 -0.84700767616762  1.26783965986599
 1 -5.10439260696070  6.42972814791479  0.76164794699470
 1 -6.36090076037604  6.70579037783778  2.03710840004000
 1 -4.73336656545654  5.49230440184018  2.36141982068207
 1 -9.74421192009201  5.55436837293729  0.49386723122312
 1 -9.28480912131213  7.96532512201220  0.21538213151315
 1 -7.45020005660566  7.66997756695670  0.25076060546055
 1 -12.06708212101210  3.30480778607861 -2.03918021642164
 1 -13.42004721822182  2.04793043114311 -1.59750327402740
 1 -12.52181914331433  2.84095718111811 -0.34152565056506
 1 -12.45851837993799 -1.79013141134113 -1.18191839973997
 1 -13.40656666026603 -0.41097491049105 -1.66839419641964
 1 -13.01714218041804 -1.74198543774378 -3.75975897359736
 1 -12.40980115411541 -0.28816754265427 -3.84810238523852
 1 -11.22492584018402 -1.73092603660366 -3.44384349984999
 1 -8.94082497839784 -4.96995984428443 -1.62447002840284
 1 -7.91402510351035 -5.54309441764176 -0.62548677677768
 1 -9.52060422622262 -4.93668045504550 -0.09045730193019
 1 -3.43115324732473 -3.42209379387939 -0.18391504450445
 1 -1.43139422942294 -4.07049542684268  3.64326101310131
 1 -2.72326751415142 -5.46513715611561  3.41790901300130
 1 -1.11526295279528 -5.61043522062206  2.54570127302730
 1  2.89870454155416 -1.77718740864086 -1.72443651995199
 1  2.53727542774277 -0.12121920352035 -2.00699271907191
 1  4.34320354465447 -1.05369337553755  0.70232260846085
 1  4.21871280758076  1.06171726802680 -2.48501184348435
 1  5.18277157555756  2.11274566476648 -2.08230258485849
 1  5.68760408320832  0.84498482868287 -2.94108540784078
 1  6.77802082538254  1.36493272097210  0.01755925362536
 1  6.73950729872987 -0.02555580448045  0.67978898599860
 1  7.39876361846185 -1.43370444214421 -1.30161429012901
 1  7.61279281028103  0.15290216671667 -2.05269541644164
 1  9.16886298349835  0.85120773727373  0.13692765526553
 1  8.75252307510751 -0.81061941734173  0.56692131073107
 1  10.22515422692269 -0.03592882658266 -1.78075190579058
 1  9.39784628102810 -2.46242328662866 -2.08298325952595
 1  11.20739382408241 -2.26650316291629 -1.90878706470647
 1  10.12195966956696 -2.85926754935494 -0.73023511421142
 1  11.45805056725673  0.65062947044704  0.44942690609061
 1  11.29300971067107 -0.99848218631863  0.98659613261326
 1  13.10406614231423 -1.66179304070407 -0.91741007590759
 1  12.79333823982398 -0.02147266826683 -1.40026839063906
 1  13.66330783398340  0.84902815831583  0.86753341384138
 1  14.01122721302130 -1.06061849914991  1.20592576227623
 1  15.38676106820682  0.51919177957796 -1.32434209370937
 1  15.63776577757776 -2.14608133403340  0.05065746814681
 1  15.09987751955195 -1.97686588018802 -1.67439515991599
 1  16.75157321592160 -1.50182411101110 -1.28968107690769
 1  16.20102531223122  1.32015108780878  0.90368378937894
 1  16.42725442744274 -0.14731112681268  1.42697562926293
 1  18.26869606150615 -0.33251021482148 -0.55367137473747
 1  17.62206228742874  0.87614887338734 -1.22034551845184
 1  18.41445012781278  2.31570346994700  1.03980908180818
 1  18.82995927332733  0.84713832513251  1.73632998459846
 1  20.70891095779578  0.37406384218422  0.05997374777478
 1  19.95914274757476  3.22383136803680 -0.94353462296230
 1  21.38915502940294  2.31080695859586 -1.38090934493449
 1  19.84788562176217  1.82734413671367 -2.01717214051405
 1  21.20706072137214  1.67541684548455  2.35929537113711
 1  22.18240288078808  1.98207673887389  0.75835010121012
 1  20.71863439603960  3.02033570977098  1.49036496769677

