%nproc=4
%Mem=2GB
# td=(NStates=1) CAM-B3LYP/6-31G(d,p) 

TD

0 1
12 -7.13909557885789  0.59386762746275  0.06954500310031
 6 -4.88502738383838 -1.97702981428143  0.49650528542854
 6 -4.85972527882788  2.83643797109711  1.04671812901290
 6 -9.49157374617462  3.01242364176418 -0.25149648264826
 6 -9.55409643724373 -1.75644581958196 -0.87688580358036
 7 -5.05922870447045  0.40510177067707  0.53127064746475
 6 -4.32054966026603 -0.72549316971697  0.75608751155116
 6 -2.93654461566157 -0.35662093419342  1.23370881208121
 6 -3.00562085128513  1.12715384788479  1.66989979637964
 6 -4.39845793249325  1.41100148054805  1.09508576977698
 6 -2.80585837683768  1.26655314261426  3.13515704180418
 6 -1.90140442134213 -0.70792480258026  0.09048837463746
 6 -0.53474172817282 -0.49603783518352  0.51730031293129
 6  0.43861323972397 -0.61678511061106 -0.67542919471947
 8  0.20394094379438 -0.97109851365137 -1.77260654095410
 8  1.72803982898290 -0.43542844964496 -0.18342256235624
 7 -7.18494610311031  2.57067847514751  0.44368952575258
 6 -6.14167129812981  3.35969692359236  0.75194317831783
 6 -6.56769475917592  4.77904853525353  0.89013677817782
 6 -7.85413600900090  4.87419730643064  0.42218912591259
 6 -8.20515106830683  3.41500179147915  0.22693303250325
 6 -5.63638942014201  5.87198829012901  1.20220674587459
 6 -8.69283849624963  5.97807287528753  0.41198122002200
 6 -8.44049324712471  7.23944002830283  0.06463220092009
 7 -9.06094112981298  0.65970244854485 -0.57246895219522
 6 -9.85695735473547  1.81923260586059 -0.66158128232823
 6 -11.23943868676868  1.53545453585359 -1.08910365996600
 6 -11.20743926462646  0.17147102440244 -1.23537280348035
 6 -9.90973085678568 -0.37581606970697 -0.92175147804780
 6 -12.17799604170417  2.50053233413341 -1.37933846474647
 6 -12.50021006670667 -0.57173823602360 -1.67704288148815
 6 -12.39792612461246 -0.99892377757776 -3.16102420782078
 7 -7.27880413251325 -1.42838219981998 -0.20462358105811
 6 -8.33996921922192 -2.19847578707871 -0.51233903980398
 6 -7.92002967046705 -3.68078226112611 -0.44668309730973
 6 -6.51565708770877 -3.64699901540154 -0.15098759085909
 6 -6.23136791499150 -2.12254840934093  0.06744836623662
 6 -8.59374971967197 -4.95800861976198 -0.65194474147415
 6 -5.39862640034003 -4.33636962226223  0.18126662656266
 8 -5.10437179897990 -5.60518317191719  0.22277831263126
 6 -4.15648905890589 -3.31573450755075  0.55655654765477
 6 -3.51404576877688 -3.66340242484248  1.87930911061106
 8 -3.77847150175018 -3.21212444524452  2.88242195749575
 8 -2.71551289918992 -4.71990014251425  1.61356944494449
 6 -2.24961760026003 -5.28102857215722  2.87953929092909
 6  2.79837361396140 -0.58732799049905 -1.22070744564456
 6  4.09393271567157 -0.49791364076408 -0.57911043974397
 6  5.12913652105211  0.28066139063906 -0.91002090229023
 6  5.05249266586659  1.42296683298330 -2.07032412351235
 6  6.46920337793779  0.29599840674067 -0.01727841404140
 6  7.60852859175918 -0.12378426032603 -0.96924659335934
 6  9.02866194859486 -0.02941267476748 -0.06392898709871
 6  10.22434332733273 -0.54632173047305 -0.89359575397540
 6  10.24399158535854 -2.04214354925493 -1.28336999849985
 6  11.50091120822082 -0.32716360696070 -0.07718752005201
 6  12.79335650465046 -0.51096761266127 -0.71224176397640
 6  13.98669435723572  0.02508574537454  0.21816902990299
 6  15.40624596859686 -0.23161577327733 -0.42877592789279
 6  15.83156725892589 -1.63262604840484 -0.76153343314331
 6  16.52579583358336  0.40280466656666  0.54240342504250
 6  17.85596130043004  0.59511763756376 -0.15761404130413
 6  19.00900630013001  1.24761660846085  0.73249561126113
 6  20.44355203500350  1.27332307690769  0.17059666326633
 6  20.42364259315931  2.11904755275528 -1.12045786718672
 6  21.29033690779078  1.92103647304730  1.17351405300530
 1 -4.19663992249225  3.66914529622962  1.40063458445845
 1 -10.39643339503950  3.66475405930593 -0.33039734233423
 1 -10.29856911871187 -2.50615066976698 -0.86424997249725
 1 -2.88850754145415 -1.01462112581258  2.09420665926593
 1 -2.29777941594159  1.74182267086709  1.22574694119412
 1 -1.76826054935493  0.98900438943894  3.56304651805181
 1 -3.07438222442244  2.16690614721472  3.63100766826683
 1 -3.47965894709471  0.71405577327733  3.58677256175618
 1 -2.04148667556756 -1.49955587598760 -0.51519650565056
 1 -2.40403460566057 -0.01006891559156 -0.65257035863586
 1 -0.35735282928293  0.58450637413741  0.92423467536754
 1 -0.22456841054105 -1.36314929032903  1.29715259115912
 1 -4.97999016671667  6.24643981908191  0.34850663286329
 1 -6.30648531883188  6.71790158895890  1.63181787098710
 1 -5.29837306610661  5.51528670007001  2.28868254695470
 1 -9.76478397729773  5.84637757385739  0.65278312281228
 1 -9.33870451085108  7.94668325782578  0.28403899719972
 1 -7.45845088168817  7.54379494869487 -0.26231070167017
 1 -11.89350476327633  3.35309261456146 -2.03876017441744
 1 -13.25916112961296  2.10286592469247 -1.72998652235223
 1 -12.38898585998600  3.06320940634063 -0.47130862886289
 1 -12.53057558565857 -1.44832723092309 -0.89475968386839
 1 -13.51918792239224 -0.06714052705270 -1.50085744274427
 1 -13.38630909710971 -1.63447468666867 -3.51928492619262
 1 -12.62694286828683 -0.26744547044704 -3.85399297429743
 1 -11.53238658625863 -1.60886383038304 -3.19756887238724
 1 -9.01736263216322 -4.94439728802880 -1.71394897629763
 1 -8.06994069506951 -5.76318642684268 -0.73475770387039
 1 -9.23406557235723 -4.99100588758876  0.38586032983298
 1 -3.54461459345935 -3.41035261976198 -0.25818247124712
 1 -1.62529361936194 -4.55925430273027  3.35535222222222
 1 -3.08794398179818 -5.52158280068007  3.62270949304931
 1 -1.43832525902590 -6.09012318941894  2.60912761566157
 1  2.85629030013001 -1.53950364026403 -1.76208028432843
 1  2.54091579177918  0.14528744714471 -2.05127714751475
 1  4.37105632993299 -1.10720872707271  0.25407778397840
 1  4.14389532583258  1.66409750605060 -2.59401274357436
 1  5.43678697709771  2.15411980218022 -1.67773212781278
 1  5.66724204700470  1.20222055225523 -2.79726102540254
 1  6.66332935623562  1.28646487418742  0.34981247894789
 1  6.16995034303430 -0.46242949184918  0.82830383748375
 1  7.33758750085009 -1.01149222092209 -1.30504463316332
 1  7.76221775277528  0.52137901440144 -1.83255340224022
 1  9.20548664586459  0.81827444394439  0.46128009050905
 1  8.88073589638964 -0.49507786318632  0.86151076967697
 1  10.54730644214422  0.06587135343534 -1.88570240084008
 1  9.41098759515952 -2.44765180948095 -1.76968192939294
 1  10.94998808350835 -2.47799431203120 -2.14644083008301
 1  10.25793326692669 -2.68718034063406 -0.54078616931693
 1  11.35426018821882  0.66419082658266  0.35123708710871
 1  11.44976538623862 -0.98512085018502  0.79994746774677
 1  12.99828556425643 -1.61293815521552 -1.11842017691769
 1  13.00948985498550 -0.03967448844884 -1.83152151595160
 1  13.86792829602960  1.11793504900490  0.11213787428743
 1  13.90093618391839 -0.39136157345735  1.25946111581158
 1  15.33611600370037  0.27276713711371 -1.49669932943294
 1  15.93414541554155 -2.27723444934493  0.23455585798580
 1  14.81712924472447 -2.15229342294229 -1.29019674007401
 1  16.74535259385939 -1.58458238683868 -1.24714682348235
 1  16.16027123682368  1.39640871357136  0.93848726972697
 1  16.48177987998800 -0.33553994969497  1.48284121582158
 1  18.21109030093010 -0.26906387018702 -0.56953296089609
 1  17.69984006520652  1.12558381688169 -1.05603908780878
 1  18.63135181798180  2.22071397099710  0.84369947084709
 1  19.08489476687669  0.78769238053805  1.73035938753875
 1  20.69744981168117  0.27891432723272  0.05237298769877
 1  19.86012284558456  3.14705369026903 -0.97687795729573
 1  21.59225533943394  2.43145902380238 -1.49203045704570
 1  19.99472030523052  1.61811321362136 -2.01320174347435
 1  21.38427844314431  1.09165846964696  1.96217565916592
 1  22.40761540204020  2.04206273747375  0.88422268846885
 1  21.08158069066907  2.95526920312031  1.60561649284928

