%nproc=4
%Mem=2GB
# td=(NStates=1) CAM-B3LYP/6-31G(d,p) 

TD

0 1
12 -7.18405007430743  0.57877611831183  0.05946399499950
 6 -4.93806268736874 -1.93447555885589  0.51683731863186
 6 -4.84710401670167  2.84154848214822  1.30556401360136
 6 -9.55402999179918  3.00065246464646 -0.38758009100910
 6 -9.54274530213021 -1.84914508950895 -0.92392050705071
 7 -5.14333711531153  0.40882214271427  0.77781530193019
 6 -4.32204981028103 -0.69594021442144  0.88801070387039
 6 -2.94397535873587 -0.43699897199720  1.29238467966797
 6 -3.12448273747375  1.10195132763276  1.89829263566357
 6 -4.44313239993999  1.52297267766777  1.20452671387139
 6 -3.05710350135013  1.22809929722972  3.35893942004200
 6 -1.99344362526253 -0.49391340144014  0.12590191599160
 6 -0.59106736073607 -0.41733996539654  0.70121870477048
 6  0.47348672707271 -0.59796322842284 -0.47313896569657
 8  0.16741729142914 -1.02193359715972 -1.54224350465047
 8  1.69758678367837 -0.34102900970097  0.03646942684268
 7 -7.16577418591859  2.58697010431043  0.26599175597560
 6 -6.08125525652565  3.24853580748075  0.78388637263726
 6 -6.50510850055006  4.74503513391339  0.86488425292529
 6 -7.88380897629763  4.74664455115512  0.47941484848485
 6 -8.26557711091109  3.45128541984198  0.09421976117612
 6 -5.65609139033903  5.77852894419442  1.40251677687769
 6 -8.70736994939494  5.96689175717572  0.29632965486549
 6 -8.22707190499050  7.19123520782078  0.04695043274327
 7 -9.17110214591459  0.64469094739474 -0.54936664196420
 6 -9.85870752975297  1.69932061466147 -0.76459158335834
 6 -11.23877862076208  1.42565355575558 -1.25165991559156
 6 -11.22505102580258  0.06523040034003 -1.49039830603060
 6 -9.91560144384438 -0.44914340244024 -1.00811011391139
 6 -12.29558780088009  2.48589086998700 -1.43303383428343
 6 -12.35562560826083 -0.81792285448545 -2.03549872707271
 6 -12.21608794079408 -1.09045293049305 -3.53563166856686
 7 -7.25508176027603 -1.40549991159116 -0.18902202090209
 6 -8.19712493479348 -2.29056499599960 -0.63830163606361
 6 -7.76205387288729 -3.61551573447345 -0.48427685668567
 6 -6.48324384638464 -3.57214152965297 -0.13221571367137
 6 -6.15001978017802 -2.22703885838584  0.10835245664566
 6 -8.72595293999400 -4.85482830173017 -0.83859340634063
 6 -5.32065860356036 -4.43229921522152  0.22679117901790
 8 -5.15669703150315 -5.60702335593559  0.07070310511051
 6 -4.17742115211521 -3.31841477557756  0.58877976997700
 6 -3.51107547174717 -3.72479856445645  1.83894507420742
 8 -3.64529818441844 -3.10282351515151  2.98120183548355
 8 -2.75865721362136 -4.82608076057606  1.74037212521252
 6 -2.12850548904891 -5.21988245754576  2.86404774177418
 6  2.72769654625463 -0.30715997369737 -0.99125450035003
 6  4.09629295169517 -0.15207905730573 -0.32279480818082
 6  5.08120172757276  0.57666099059906 -0.70700060026003
 6  5.16539395599560  1.53840837713771 -1.97889498059806
 6  6.46705316291629  0.67261606850685  0.04118743254325
 6  7.59576731563156  0.05300341844184 -0.83764343304330
 6  8.90018910131013  0.03763402990299 -0.01266386058606
 6  10.20740163316332 -0.34388148644864 -0.91037743214321
 6  10.08271545774577 -1.95288462336234 -1.13620528202820
 6  11.42112322942294 -0.06740763136314 -0.03759356065607
 6  12.77682485148515 -0.47133364926493 -0.68263880368037
 6  14.04449013681368 -0.10549731293129  0.10879809280928
 6  15.36364170817082 -0.38961157285729 -0.48725177547755
 6  15.78479258145815 -1.85205799159916 -0.92443972377238
 6  16.53008626262626  0.25405979207921  0.49651883658366
 6  17.92732843714371  0.39214734053405 -0.25128340824082
 6  19.02423782328233  1.15406725352535  0.52966532823282
 6  20.39114679447945  1.19997574217422 -0.07681807820782
 6  20.52393262216221  1.87622327032703 -1.36960278167817
 6  21.36618449254926  1.79412378177818  0.85063176477648
 1 -4.18052831133113  3.41432981468147  1.96485100610061
 1 -10.32139589128913  3.70454803870387 -0.84969927252725
 1 -10.11693095489549 -2.41306136083608 -1.44590813831383
 1 -2.67052574327433 -1.26925658935894  2.15054229282928
 1 -2.48822846084608  1.45854434303430  1.41643601010101
 1 -2.24081780508051  0.91752724172417  3.90829104250425
 1 -3.31133591979198  2.03689314591459  3.64967953545355
 1 -3.74856583778378  0.49397376507651  3.80643452795280
 1 -2.09179170607061 -1.38882480288029 -0.56182116811681
 1 -2.33300750295029  0.39750184148415 -0.51197629922992
 1 -0.30585767976798  0.52875079857986  1.05699795169517
 1 -0.20913686738674 -1.19039201460146  1.54786766266627
 1 -5.09257142484248  6.40561573667367  0.68393017521752
 1 -6.32671734203420  6.54909470827083  2.00418510771077
 1 -5.07445067386739  5.38763393479348  2.07320099879988
 1 -9.86295379427943  5.65763869997000  0.38541638613861
 1 -8.76269691009101  8.08177676717672 -0.19078848554856
 1 -7.15604064066407  7.42055262446245 -0.03951842244224
 1 -12.19254466726673  3.55224252955295 -2.14778107650765
 1 -13.28062327582758  1.96829246734673 -1.73957748144814
 1 -12.44303126452645  2.92395548094809 -0.46336783478348
 1 -12.27892042014201 -1.77015941414141 -1.25378558645865
 1 -13.23803980758076 -0.33534734773477 -1.76803416041604
 1 -12.85988645484548 -1.74836607580758 -3.90450344804480
 1 -12.16518669266927 -0.06328505440544 -4.10432800780078
 1 -11.23146649424942 -1.48913185718572 -3.86497561306131
 1 -8.99284017991799 -4.78568141644164 -1.83544112551255
 1 -8.00063376437644 -5.63520362856286 -1.00958518661866
 1 -9.52803496929693 -5.05399218621862 -0.13353160936094
 1 -3.37200733273327 -3.22732431693169 -0.14681133413341
 1 -1.38820991099110 -4.44232260956096  3.11266795379538
 1 -2.91826701410141 -5.26752739513951  3.86595381748175
 1 -1.52577400390039 -6.16631080818082  2.73863056595660
 1  2.58888355945595 -1.43115280518052 -1.50291436773677
 1  2.74672637283728  0.43131605000500 -1.72806482628263
 1  4.14116334063406 -0.83788179437944  0.51729410561056
 1  4.15713664996500  1.46369746604661 -2.45429877217722
 1  5.45091839023902  2.51015540574057 -1.61989634423442
 1  5.92994831763176  1.03734406460646 -2.72009330863086
 1  6.63984700800080  1.79598582628263  0.30068756645665
 1  6.24744809280928  0.29909666076608  0.97642864996500
 1  7.25109885198520 -1.00022109380938 -1.14154828352835
 1  7.98202973397340  0.62041891839184 -1.67300744764476
 1  9.07170326752675  1.17351996849685  0.36959092159216
 1  8.92257007980798 -0.66808516391639  0.82024664326433
 1  10.17833954545454  0.19479424572457 -1.78294212481248
 1  9.22885938233823 -2.17169421372137 -1.63464842604260
 1  10.98036112081208 -2.21644815741574 -1.66664285028503
 1  9.98458593219322 -2.43089471207121 -0.12659475017502
 1  11.48404316651665  0.97969237673767  0.48640060346035
 1  11.36570698039804 -0.78513085118512  0.82863033603360
 1  12.54669040474047 -1.45493235463546 -1.01217955285529
 1  12.87916682268227  0.11567104610461 -1.52324068786879
 1  13.92145364856486  0.81455471097110  0.44627128762876
 1  14.13470956125613 -0.60991342864286  1.20565573527353
 1  15.43041543364336  0.20682054245425 -1.40972063156316
 1  16.15160716171617 -2.31349807570757  0.05240764316432
 1  15.04330186198620 -2.31770996459646 -1.45852357275728
 1  16.84547260586059 -1.68277220582058 -1.40764287308731
 1  16.21464667436744  1.40939001170117  0.69477289828983
 1  16.65633733573357 -0.46822321802180  1.32826575827583
 1  18.35032422432243 -0.58188515231523 -0.45221122872287
 1  17.90168024922492  0.96719797829783 -1.23008649254926
 1  18.50370905370537  2.13803570317032  0.60165526642664
 1  18.94966124352435  0.60606421772177  1.62931928352835
 1  20.97759782648265  0.12930936673667 -0.27004925452545
 1  19.94865169846985  2.90155914081408 -1.25945621512151
 1  21.51913802770277  1.87653353125313 -1.53450470447045
 1  19.86256708990899  1.24708611091109 -2.27229765306531
 1  21.39494951025102  1.20404970877088  1.74751419301930
 1  22.36778141864187  1.65485401660166  0.30149441564157
 1  21.25252778537854  3.00997467366737  1.30367629882988

