%nproc=4
%Mem=2GB
# td=(NStates=1) CAM-B3LYP/6-31G(d,p) 

TD

0 1
12 -7.12627429672967  0.66131437213721  0.09309735833583
 6 -4.83344222532253 -2.02022413371337  0.58445408030803
 6 -4.80070937723772  2.77696202350235  1.27275073227323
 6 -9.37508209700970  3.09426182558256 -0.34303563656366
 6 -9.52761378897890 -1.67645782078208 -0.89089720472047
 7 -5.09107188878888  0.42628388888889  0.71092861326133
 6 -4.31773937923792 -0.68028864926493  0.83373527632763
 6 -2.85954691589159 -0.39193446554655  1.26960240144014
 6 -2.98485877507751  1.05315644814481  1.70716352275228
 6 -4.36245433213321  1.44589496989699  1.17308356955696
 6 -2.84708249924992  1.18851533883388  3.18155168126813
 6 -2.00889517041704 -0.62632664276428  0.20769009480948
 6 -0.48142639663966 -0.41442967436744  0.44833341624162
 6  0.48038741714171 -0.62052548464846 -0.70861251305131
 8  0.26746729642964 -1.10100150395040 -1.75112439273927
 8  1.77103412841284 -0.26210111691169 -0.26696091619162
 7 -7.11045865436544  2.60007141444144  0.43139829662966
 6 -6.13846097709771  3.31939289318932  0.83086107010701
 6 -6.42535052475248  4.75579621002100  0.89490725522552
 6 -7.63942453785378  4.82359224592459  0.47532443944394
 6 -8.12906345954595  3.46324661596160  0.12834317351735
 6 -5.49959574077408  5.82701379267927  1.24289081428143
 6 -8.60602981538154  5.98224329232923  0.20886090799080
 6 -8.22926212401240  7.22850893519352  0.03128886658666
 7 -9.07184221992199  0.61554803310331 -0.52301400670067
 6 -9.89857151615161  1.81940262286229 -0.67588271247125
 6 -11.19289403230323  1.48431942234223 -1.07574232383238
 6 -11.21068958965897  0.08602247954795 -1.26450571677168
 6 -9.96348623232323 -0.46160464856486 -0.89641894479448
 6 -12.19396763886389  2.52651493239324 -1.32780331123112
 6 -12.34271431713171 -0.78056911911191 -1.75195037223722
 6 -12.24314064606461 -1.07536142134213 -3.29569767516752
 7 -7.21168742084208 -1.38346770837084 -0.16417953665367
 6 -8.23824904720472 -2.15769170867087 -0.54416222212221
 6 -7.89055672317232 -3.57902208510851 -0.46772520152015
 6 -6.56370189218922 -3.52163647914791 -0.15899839193919
 6 -6.17857263546355 -2.22438859335934  0.12054367576758
 6 -8.69709005370537 -4.73454627352735 -0.77010655765577
 6 -5.39812635033503 -4.30199618491849  0.21435993589359
 8 -5.22882424422442 -5.54623727732773  0.21241727652765
 6 -4.17538094809481 -3.36972990709071  0.59114000600060
 6 -3.53670803500350 -3.86048213281328  1.91374255395540
 8 -3.68502215681568 -3.21923515631563  2.95882959825983
 8 -2.76905825372537 -4.86231438393839  1.78830691869187
 6 -2.11013365186519 -5.31377184648465  2.98357969496950
 6  2.82415619221922 -0.47426668436844 -1.23738911381138
 6  4.15953927632763 -0.28780262966297 -0.55021755045505
 6  5.14388799619962  0.48011133563356 -0.99965986618662
 6  5.16908432503250  1.27869240554055 -2.22572966406641
 6  6.37615407300730  0.39913872077208 -0.18001468766877
 6  7.58716645554555 -0.29802168406841 -1.01046071477148
 6  8.85995507790779 -0.19609934343434 -0.11459405360536
 6  10.11689258225823 -0.69171626992699 -0.89569596399640
 6  10.04381156735674 -2.16996633153315 -1.28233989548955
 6  11.40915203230323 -0.34237512811281 -0.05214501580158
 6  12.73435060406041 -0.43463997989799 -0.80434097389739
 6  13.94557024482448 -0.08178494169417  0.00313752675268
 6  15.30117546154615 -0.13798641034103 -0.54656770707071
 6  15.64468857105711 -1.57497028282828 -0.91403868366837
 6  16.34959821382138  0.47600198629863  0.42136132083208
 6  17.80921662596260  0.65989411521152 -0.29843812371237
 6  18.78459385888589  1.31279312611261  0.83657601930193
 6  20.17934561436144  1.38995474007401  0.33298290189019
 6  20.34183441234123  2.16040168816882 -1.00829665106511
 6  21.15591346544655  1.92565693509351  1.42080878247825
 1 -4.11155141364136  3.46596497819782  1.76638115911591
 1 -10.10473422512251  3.83664124802480 -0.47044134673467
 1 -10.14570383218322 -2.43352340704070 -1.21098464596460
 1 -2.41843053375338 -1.12074173787379  2.06585382398240
 1 -2.13559319731973  1.48171666026603  1.22401676817682
 1 -1.82995671897190  0.92425791479148  3.70521073447345
 1 -3.14444923112311  2.35135459205921  3.64011857935794
 1 -3.47441842304230  0.54774914261426  3.86342022652265
 1 -2.10967349424942 -1.57295321572157 -0.39564455045505
 1 -2.15439964216422  0.19020111141114 -0.62941804340434
 1 -0.29015610961096  0.46200412391239  0.96547879977998
 1 -0.30924687838784 -1.04233720912091  1.15564844074407
 1 -4.73325549324932  5.89124429952995  0.52726450865086
 1 -5.97745241554155  6.74205400420042  1.45126981618162
 1 -5.09314254305430  5.57468263966397  2.25256893559356
 1 -9.54930242914291  5.58470140624062  0.65444328882888
 1 -8.95963660406040  7.96881547104710  0.03365395869587
 1 -7.29229426602660  7.65230579977998 -0.47050152075207
 1 -12.04850026282628  3.51069837513751 -2.06391268966897
 1 -13.12565777927793  2.04253989208921 -1.78945246894689
 1 -12.71899886128613  2.79955304070407 -0.25460695869587
 1 -12.18291081918192 -1.80062246044604 -1.27378758665867
 1 -13.40659666326633 -0.42499631263126 -1.55887324432443
 1 -13.01903236943694 -1.87397863706371 -3.58469146684668
 1 -12.57809798379838 -0.10379910581058 -4.07425500050005
 1 -11.17157050465046 -1.24244718871887 -3.50370948644864
 1 -9.02038293419342 -4.78567141544154 -1.86306388778878
 1 -7.94713841484148 -5.65310541874187 -0.70823505160516
 1 -9.65274744054405 -4.80844763176318 -0.00527878407841
 1 -3.40999113111311 -3.47596918141814 -0.27188384138414
 1 -1.37285837583758 -4.58122649995000  3.41834852185218
 1 -2.84583977137714 -5.55354599699970  3.79721694379438
 1 -1.43272469896990 -6.15762994009401  2.64687139003900
 1  2.76459113021302 -1.49825951585158 -1.61630570687069
 1  2.65435713591359  0.18912183058306 -2.01846386618662
 1  4.53418264256426 -1.15968397459746  0.21947432363236
 1  4.23237417371737  1.23736483278328 -2.69768311061106
 1  5.32734603300330  2.34268865906591 -1.95690004460446
 1  5.79365468826883  0.71186151635164 -2.94296559585959
 1  6.50122314561456  1.41343757145715 -0.01453395569557
 1  6.24978832683268 -0.10462371127113  0.97375838293829
 1  7.34503824592459 -1.38278935063506 -1.31101523022302
 1  7.78467999899990  0.30631750825083 -1.84736488338834
 1  9.08195429262926  1.01319393589359  0.13103706620662
 1  8.96627445024502 -0.87665602100210  0.75849046764676
 1  10.37874958645865 -0.04120935463546 -1.68904273487349
 1  9.21328782518252 -2.33510055435544 -1.98791375257526
 1  10.81847493219322 -2.65372188478848 -1.78884507050705
 1  9.79642711631163 -2.87949957255726 -0.54322641334133
 1  11.26078084028403  0.61749615711571  0.38269023242324
 1  11.35191560126012 -0.96588892699270  0.79621709470947
 1  12.63721945764576 -1.39595645704570 -1.32433076797680
 1  12.82455136113611  0.21121060006001 -1.69815817961796
 1  13.76752825602560  1.02625588108811  0.40301696219622
 1  13.90889697999800 -0.72731516881688  0.83519868956896
 1  15.19597198929893  0.48982884328433 -1.46114577407741
 1  15.98450045104511 -2.15945267116712  0.07492989538954
 1  14.81507903970397 -2.12752094569457 -1.30797851825182
 1  16.57513557215722 -1.47533146174617 -1.52240434923492
 1  16.03397860756075  1.42946201890189  0.89151257225723
 1  16.64129583158316 -0.26809320502050  1.27258018971897
 1  18.47789698159816 -0.38262522632263 -0.45212121972197
 1  17.70128020922092  1.33651490999100 -1.23995747964796
 1  18.23922260506050  2.17622952255226  1.15092019291929
 1  18.85047132453245  0.67726133743374  1.73178953055306
 1  20.45903597029703  0.34319075487549 -0.03407565716572
 1  19.93822065536554  3.33051203610361 -0.96044631413141
 1  21.31442755665567  2.00556643454345 -1.30585183918392
 1  19.70735156835683  1.65603700600060 -1.74152457575758
 1  20.90958097339734  1.32246154995500  2.41005044664466
 1  22.21237587808781  1.88170670187019  1.06421068726873
 1  20.85567810041004  2.96263994019402  1.87207313851385

