%nproc=4
%Mem=2GB
# td=(NStates=1) CAM-B3LYP/6-31G(d,p) 

TD

0 1
12 -7.14845651495150  0.49498773947395  0.16256430503050
 6 -4.81709059015902 -2.02879499079908  0.58063369826983
 6 -4.86588589488949  2.82463679097910  1.21938539573957
 6 -9.39889447824782  3.04420682008201 -0.49010034303430
 6 -9.51122214981498 -1.84478465346535 -0.76761487648765
 7 -5.09343212481248  0.36289755025503  0.76562408280828
 6 -4.33757136243624 -0.71351197159716  0.81644354715472
 6 -2.90060102130213 -0.35528080018002  1.30916635783578
 6 -3.06802709190919  1.07831896439644  1.70783358975898
 6 -4.40636872357236  1.56287666806681  1.18763502470247
 6 -2.90247803880388  1.33381986928693  3.27826135223522
 6 -1.97435171607161 -0.60041405150515  0.04470379617962
 6 -0.52747100110011 -0.23455168656866  0.47953653655366
 6  0.49966934533453 -0.45718915101510 -0.68515016681668
 8  0.16569711941194 -0.75419682348235 -1.79612889318932
 8  1.65136216121612 -0.22009691649165 -0.26937115721572
 7 -7.19777738623862  2.57722913021302  0.28480363716372
 6 -6.15528265926593  3.35407636153615  0.88708669266927
 6 -6.60718870857086  4.75749638003800  0.86654441894189
 6 -7.81659225462546  4.86103599029903  0.37747465446545
 6 -8.27140769396940  3.40478076937694  0.02495283448345
 6 -5.72734851605161  5.79587067836784  1.37043356855686
 6 -8.72451166356636  5.90672574057406  0.40307032893289
 6 -8.31042023982398  7.20293637793779  0.25570130783078
 7 -9.08034307000700  0.59068554685469 -0.60982268756876
 6 -9.83344500350035  1.65061574417442 -0.69763488768877
 6 -11.19271401430143  1.33532452285228 -1.09068381798180
 6 -11.25515403610361  0.03079695699570 -1.23214248044804
 6 -9.92300218391839 -0.53217170527053 -0.85294459735974
 6 -12.23827206930693  2.35626790769077 -1.45544607550755
 6 -12.45456550225022 -0.79297035923592 -1.69121429862986
 6 -12.43406973897390 -0.96366025122512 -3.29382748814881
 7 -7.19065531763176 -1.42359172077208 -0.17248036673667
 6 -8.22204742704271 -2.30891683118312 -0.46021382728273
 6 -7.77167483498350 -3.72087627052705 -0.41828025702570
 6 -6.43489901190119 -3.56770108560856  0.05161266916692
 6 -6.13591837003700 -2.23770992549255  0.08722034343434
 6 -8.58509885458546 -4.85101792069207 -0.96222576957696
 6 -5.31825836353635 -4.38612459775978  0.30544904480448
 8 -5.17910927272727 -5.58401105470547  0.31979801460146
 6 -4.08089149914991 -3.30238317241724  0.52639353135314
 6 -3.54228859305931 -3.58959504410441  1.87117829752975
 8 -3.76232988758876 -3.17603083588359  2.93884760006001
 8 -2.57297864576458 -4.61198935143514  1.64350243824382
 6 -2.13299593809381 -5.26076654595460  2.98768010501050
 6  2.74749852645265 -0.31065032273227 -1.28055343024302
 6  4.09470279267927 -0.21724557395740 -0.59431195989599
 6  5.12360596799680  0.51908523302330 -1.06812671287129
 6  5.22732014861486  1.33143768006801 -2.45723281438144
 6  6.42248870647065  0.68271707860786 -0.29022570877088
 6  7.66088382728273  0.00352847094709 -0.99220888958896
 6  8.87763684608461 -0.07727746124612 -0.14851744594459
 6  10.20681157415742 -0.54251134943494 -0.93763015741574
 6  10.11940912711271 -2.02746208110811 -1.24758642014201
 6  11.45781689878988 -0.21163205380538  0.04669486818682
 6  12.81950911991199 -0.58561507740774 -0.66909744954495
 6  14.09812550035003 -0.05107187038704  0.13158037103710
 6  15.41102644664466 -0.24332694439444 -0.45913896419642
 6  15.68006210841084 -1.64488727452745 -0.85084236403640
 6  16.49462271627162  0.23038742484248  0.46985617031703
 6  17.92809851415142  0.40995912171217 -0.15604388428843
 6  18.90619601910191  1.07499934673467  0.76091845354535
 6  20.27899557935794  1.08852459705971  0.19697930153015
 6  20.30958118701870  1.99986563456346 -0.99800562196220
 6  21.18304617871787  1.68204257365737  1.28368507010701
 1 -4.24454471297130  3.71392977467747  1.35811033203320
 1 -10.26783053475348  3.72191977587759 -0.52603690629063
 1 -10.24013327512751 -2.51967202190219 -0.97407095459546
 1 -2.48254694539454 -1.18069773347335  2.12035927452745
 1 -2.31356099409941  1.56960544914491  1.20152451895190
 1 -1.99093281658166  0.92940842984298  3.67283749714971
 1 -2.92958774497450  2.39330878747875  3.30169473697370
 1 -3.60009099029903  0.91990635833583  3.99804368886889
 1 -1.77279980688069 -1.66346226662666 -0.26491147714771
 1 -2.46030023222322 -0.05326323502350 -1.03116821842184
 1 -0.63888098209821  0.80622854635464  0.84078633053305
 1 -0.31574752845285 -0.85929890529053  1.28305118101810
 1 -5.51920408810881  6.50197537263726  0.41922370457046
 1 -6.17218188848885  6.52191198999900  2.01334602380238
 1 -4.69873310211021  5.38873404480448  1.96526020472047
 1 -9.88083558245824  5.84465740184018  0.40311815631563
 1 -8.88587922832283  8.12336092559256  0.22682327562756
 1 -7.34618965556556  7.43289385858586 -0.07571204180418
 1 -11.97404281708171  2.99069637493749 -2.31022732113211
 1 -13.15901111461146  1.79319495759576 -1.61176470017002
 1 -12.42387934933493  3.18697178257826 -0.77830932893289
 1 -12.63197572567257 -1.65213761196120 -1.30686089398940
 1 -13.48450445404541 -0.44303811681168 -1.39573693069307
 1 -13.36885735193519 -1.58064930413041 -3.57802079977998
 1 -12.43839401340134 -0.04181290719072 -3.94434200920092
 1 -11.65156850445045 -1.80743368736874 -3.61619073457346
 1 -8.87385828172817 -4.72432528082808 -1.96188376977698
 1 -8.00145384638464 -5.81377148534853 -0.71086531463146
 1 -9.66967913371337 -4.85549233623362 -0.56296455265526
 1 -3.50247037903790 -3.48725030953095 -0.36327298029803
 1 -1.42929401940194 -4.54330270757076  3.15730241724172
 1 -3.04247943534353 -5.30438108050805  3.55356257835784
 1 -1.77452887938794 -6.27041121822182  2.64138084098410
 1  2.62789746084608 -1.18022771267127 -1.94971904820482
 1  2.48207990819082  0.68717163556356 -1.94483650345034
 1  4.03218244254426 -0.52911091729173  0.55126750295030
 1  4.45047598389839  1.52724382068207 -2.98335167746775
 1  5.54174747314732  2.30449483968397 -1.98037239183918
 1  6.16257157995800  1.12493282348235 -3.11975327462746
 1  6.72205522882288  1.95715194289429 -0.21838434073407
 1  6.24777812581258  0.29169592069207  0.77826883398340
 1  7.39835357745775 -1.08191926362636 -1.48061218991899
 1  8.08628015901590  0.64464134063406 -1.81281142804280
 1  9.25345144234423  0.89109172567257  0.24638860136014
 1  8.63873169596960 -0.55206356175618  0.77709232783278
 1  10.44966667816782  0.04241900820082 -1.74708853945395
 1  9.19489598599860 -2.12945999029903 -2.07564252545255
 1  10.95308839353935 -2.26894340694069 -1.82051823782378
 1  9.84373184678468 -2.66515813841384 -0.32198428912891
 1  11.40501526372637  0.85646005350535  0.31625358875888
 1  11.24298470817082 -0.70263260136014  0.97805527852785
 1  12.89057479317932 -1.73637049844984 -0.73447178207821
 1  12.85967487348735 -0.19743026402640 -1.72560092389239
 1  13.83158466166617  1.06840009550955  0.23515017551755
 1  14.04731082138214 -0.66886932423242  1.17256242594259
 1  15.48543093519352  0.22105196559656 -1.55169482898290
 1  15.60239224022402 -2.43015974187419 -0.07903550115011
 1  14.94320185198520 -1.81657985158516 -1.76187390779078
 1  16.72265032363237 -1.84600852945295 -1.08708081688169
 1  16.12524773447345  1.05748482118212  1.03103652465247
 1  16.56048775077508 -0.33488988468847  1.46526945864587
 1  18.38199739163916 -0.49980694449445 -0.49649565716572
 1  17.74029411061106  0.97572883138314 -1.05225870977098
 1  18.59423810661066  2.25017691729173  1.20404550545055
 1  18.73262954035403  0.55680929222922  1.73981033263326
 1  20.51541160786078  0.33291972777278 -0.10219246884688
 1  20.05151198449845  3.03057204210421 -0.52428269776978
 1  21.53383949784979  2.31097697559756 -1.24620587458746
 1  19.82979381258126  1.62319372167217 -1.86399682298230
 1  21.07226724202420  1.14808411221122  2.39867930953095
 1  22.33549819031903  1.66580511171117  0.92175644184418
 1  20.84231676427643  2.75000867706771  1.65289122032203

