%nproc=4
%Mem=2GB
# td=(NStates=1) CAM-B3LYP/6-31G(d,p) 

TD

0 1
12 -7.17872954225423  0.65118335903590  0.09362741134113
 6 -4.86065494659466 -1.97674978627863  0.47885352025203
 6 -4.86856616291629  2.79255358265827  1.25393885108511
 6 -9.47562215101510  3.10281268066807 -0.29882121512151
 6 -9.49026005360536 -1.72654282928293 -0.95845396039604
 7 -5.14501728332833  0.39568082858286  0.81117863826383
 6 -4.37594519981998 -0.76613723412341  0.85345724852485
 6 -2.96493745494549 -0.44305957805781  1.23330877207721
 6 -3.21009129832983  0.95889702220222  1.83437624402440
 6 -4.42719080578058  1.43059343974397  1.19547580878088
 6 -3.16622441344134  1.06915340264026  3.41979550565057
 6 -1.97464174507451 -0.49238324842484  0.06849617541754
 6 -0.49479773377338 -0.25290352175218  0.55766434933493
 6  0.54908428682868 -0.57319075117512 -0.54337598939894
 8  0.24486503620362 -0.87046845064506 -1.63179245954595
 8  1.76793381838184 -0.36744165096510  0.03441922182218
 7 -7.15897350585059  2.61515292259226  0.38240339713971
 6 -6.16260339133913  3.31672262616262  0.79479746374637
 6 -6.46686467616762  4.73558418881888  0.84957272177218
 6 -7.75307590299030  4.83248313501350  0.41892879987999
 6 -8.23801435463546  3.52777306860686  0.17849818901890
 6 -5.55205098629863  5.82073316461646  1.42459898509851
 6 -8.59923913631363  6.04487955595560  0.27846786868687
 6 -8.19657885568557  7.30542662696270  0.00664640234023
 7 -9.12574761046105  0.70718719701970 -0.60276198149815
 6 -9.88572023102310  1.79887056965697 -0.62377750195019
 6 -11.21395613851385  1.44546553695370 -1.14639938953895
 6 -11.27444596529653  0.05716959425943 -1.27660692689269
 6 -9.88777866156616 -0.40419890799080 -0.98365766866687
 6 -12.23573181528153  2.42025430633063 -1.47807833873387
 6 -12.33209325502550 -0.82823388558856 -1.84925010221022
 6 -12.12929926192619 -1.15982986818682 -3.37503560896090
 7 -7.18164441654165 -1.39304866646665 -0.27107022572257
 6 -8.26448167046705 -2.30518645814581 -0.64739254515452
 6 -7.69585725322532 -3.52815699859986 -0.54005243424342
 6 -6.42048757075708 -3.56178049354936 -0.10933342544254
 6 -6.17494227242724 -2.14608076257626  0.07925954735474
 6 -8.54749509420942 -4.79825264416442 -0.94061360836084
 6 -5.25786232393239 -4.42228821412141  0.19501800170017
 8 -5.08983034483448 -5.60009266286629  0.16650268506851
 6 -4.13060647064706 -3.31292422652265  0.53503439543954
 6 -3.55190955515552 -3.65255133973397  1.94773595329533
 8 -3.79742339693969 -3.17718095089509  2.94884860016002
 8 -2.73401474937494 -4.67291544404440  1.81495958395840
 6 -2.11135377387739 -5.07760823012301  3.02632396939694
 6  2.80185396199620 -0.55753501120112 -0.99073444834483
 6  4.13544686708671 -0.34100795019502 -0.42862539123912
 6  5.11177478487849  0.38952227672767 -0.98804870507051
 6  5.01264868146815  1.30474501080108 -2.12893998509851
 6  6.44729118671867  0.50461926882688 -0.12573926012601
 6  7.65739347824782 -0.25614749664966 -0.89420908960896
 6  8.98575765816582 -0.16913664716472 -0.12575516971697
 6  10.21164205720572 -0.57956505480548 -0.86067246164616
 6  10.14864205040504 -2.02633196809681 -1.39859152065207
 6  11.43186430353035 -0.26350724132413  0.03463366206621
 6  12.71724889388939 -0.68202471837184 -0.68459899969997
 6  14.02992868066807 -0.22147891109111  0.13600081308131
 6  15.32454779877988 -0.22991560326033 -0.53054610491049
 6  15.74422852505251 -1.65413819961996 -1.07886516631663
 6  16.41985523952395  0.42281666776678  0.32627181188119
 6  17.82278798309831  0.46800492629263 -0.35174345424542
 6  18.83144854435444  1.19835168196820  0.60964332603260
 6  20.24544222402240  1.30440618521852  0.12177178077808
 6  20.37593782268227  2.19696534453445 -1.12377819921992
 6  21.17199507360736  1.91017538693869  1.32715941754175
 1 -4.14731498999900  3.52282066376638  1.69683420442044
 1 -10.24303805550555  3.83174075797580 -0.43313761636164
 1 -10.36300556235624 -2.40092014671467 -1.11263481098110
 1 -2.72954164486449 -0.86260592429243  2.08569580818082
 1 -2.40409004700470  1.59298778737874  1.53727809430943
 1 -2.23324704800480  0.74620010901090  3.69527974137414
 1 -3.50631541774177  1.97844730133013  3.67957252475248
 1 -4.02773375457546  0.41001536923692  3.76982086658666
 1 -2.06413894079408 -1.48156407680768 -0.64658964496450
 1 -2.09746394859486  0.45307739903990 -0.69688479007901
 1 -0.34186128012801  0.65958388188819  1.10074232613261
 1 -0.13123907760776 -0.88387136253625  1.42624550045004
 1 -5.12108427612761  6.22308748384838  0.53887566976698
 1 -6.25551022132213  6.74654445324532  1.70471516071607
 1 -4.99887311611161  5.46524169556956  2.16320999969997
 1 -9.48985648454845  5.79109204530453  0.30874871937194
 1 -8.84353499389939  8.19686827632763  0.01017161046105
 1 -7.14435947254725  7.56051662086209 -0.36324079467947
 1 -11.96440185298530  3.15993329862986 -2.26323262166217
 1 -13.17653286678668  2.03136877497750 -1.87660118381838
 1 -12.64961192259226  3.01670475587559 -0.58741023902390
 1 -12.29522205030503 -1.84513691189119 -1.41876208410841
 1 -13.40644664826483 -0.57718153115312 -1.61200855785579
 1 -12.99351981818182 -1.65470670987099 -3.67345034273427
 1 -12.15629580358036 -0.34769349524952 -3.96182375737574
 1 -11.25067841544154 -1.86205914991499 -3.53829294479448
 1 -8.92416331223122 -4.86561941024102 -1.93962154355435
 1 -7.98747244824482 -5.73815392359236 -0.94698892699270
 1 -9.55708787458746 -5.03175996299630 -0.52811106730673
 1 -3.39540967296730 -3.57489907440744 -0.12197885088509
 1 -1.63678476847685 -4.27121549884988  3.49648633563356
 1 -2.82976816421642 -5.31964260666067  3.68833605570557
 1 -1.25391681818182 -5.81024520162016  2.78686538943894
 1  2.71287595869587 -1.55222491239124 -1.33835791209121
 1  2.46232793299330  0.09336225462546 -1.77356937673767
 1  4.22328155245525 -0.72996100230023  0.42940531673167
 1  3.90074101040104  1.27890898719872 -2.64341768406841
 1  4.92413571197120  2.21436582678268 -1.78991334593459
 1  5.73697902070207  1.13334366456646 -2.88684998429843
 1  6.50035305860586  1.40188641634163  0.07210470817082
 1  6.17074042204220  0.01856860796080  0.74926593369337
 1  7.30339408150815 -1.22350342204220 -0.88905303400340
 1  7.71376290729073  0.06652352885289 -2.01324147104710
 1  9.23834993219322  0.87746036253625  0.11965592809281
 1  8.81705952875287 -0.51958031343134  0.83708832743274
 1  10.18545025652565  0.23015778207821 -1.67438126872687
 1  9.04218071447145 -2.14436148044804 -1.95217017821782
 1  10.96837992269227 -2.07300381298130 -2.08647483348335
 1  10.42592006560656 -2.71937355995600 -0.53531562226223
 1  11.33248801100110  0.71561596909691  0.34498646204620
 1  11.32630304000400 -0.80663300140014  0.99805727872787
 1  12.79215495119512 -1.74036089748975 -0.73766210111011
 1  12.72761166716672 -0.10374089508951 -1.68180654445445
 1  13.84421592479248  0.92882613811381  0.54232089258926
 1  14.01115720602060 -1.02524496179618  1.01108627832783
 1  15.38819121122112  0.40872073247325 -1.57079673917392
 1  16.17223922492249 -2.30961768766877 -0.28721631923192
 1  14.86437396919692 -1.99352754635463 -1.42036975737574
 1  16.66518457705771 -1.67453138173817 -1.81903401220122
 1  16.22259746944694  1.53598267096710  0.70176359735974
 1  16.43607530953095 -0.27459385508551  1.23408634033403
 1  18.24719391129113 -0.55093205700570 -0.54204021162116
 1  17.73536361756176  1.12724398289829 -1.41978546244624
 1  18.57522620542054  2.26342824242424  0.96477157805781
 1  18.76707298469847  0.58862247354735  1.67304365596560
 1  20.58399846654665  0.24046048184818 -0.01804405400540
 1  20.21028786208621  3.25486447134714 -0.86689695919592
 1  21.50817693159316  2.22630850875087 -1.32020327432743
 1  19.58352918611861  2.02774417671767 -1.96648707200720
 1  21.09106912221222  1.24021332513251  2.16976641824182
 1  22.10702534303431  1.86843537473747  0.85982024822482
 1  20.78044057665767  3.02730640684068  1.55759169036904

