%nproc=4
%Mem=2GB
# td=(NStates=1) CAM-B3LYP/6-31G(d,p) 

TD

0 1
12 -7.16167783708371  0.56069431013101  0.03519156775678
 6 -4.78393727482748 -1.96543865516552  0.38058369326933
 6 -4.76745605190519  2.83209753705371  1.06473993119312
 6 -9.37604219301930  3.10032243164316 -0.35559689268927
 6 -9.55291631923192 -1.78803897889789 -0.83444155915592
 7 -5.16306908850885  0.47423868436844  0.66517403780378
 6 -4.29134673997400 -0.71384200460046  0.70768267106711
 6 -2.84187514871487 -0.39831510361036  1.18444388558856
 6 -2.98230852005201  1.02845397789779  1.60803360976098
 6 -4.33008109480948  1.44817519791979  1.06744300550055
 6 -2.83903169416942  1.30619710701070  3.06994052015201
 6 -1.79191347224722 -0.66735074517452  0.15427475327533
 6 -0.35989424342434 -0.44140237163716  0.62864144704470
 6  0.58133751215122 -0.68066149824982 -0.51378303010301
 8  0.28571912161216 -1.13009441324132 -1.63581286158616
 8  1.86636366136614 -0.32893780058006 -0.23397761786179
 7 -7.04165177367737  2.59054046134613  0.23645880268027
 6 -6.02349948094809  3.28132908680868  0.79818780278028
 6 -6.36025401510151  4.74078470887089  0.91885965046505
 6 -7.69622021742174  4.79290917761776  0.48804571157116
 6 -8.10906145934593  3.46907719901990  0.15257559675968
 6 -5.53563934513451  5.80755184648465  1.36652317751775
 6 -8.61129034143414  5.91009607760776  0.47615763766377
 6 -8.31219041684168  7.22267835213521  0.10890662836284
 7 -9.11084612031203  0.66384286258626 -0.53721542684268
 6 -9.87938959795980  1.74445512811281 -0.67182230643064
 6 -11.21221596449645  1.42911390179018 -1.06506125572557
 6 -11.25431395209521  0.09656353365337 -1.18239750595060
 6 -9.88403828752875 -0.42830131823182 -0.79549885278528
 6 -12.29248749084909  2.46824910581058 -1.28789932083208
 6 -12.46295634133413 -0.86914797699770 -1.64132931013101
 6 -12.49708604060406 -1.28237212241224 -3.17991609700970
 7 -7.14551080318032 -1.29556891849185 -0.14243736243624
 6 -8.13610883318332 -2.20558649814981 -0.57316512241224
 6 -7.76466413391339 -3.54154833773377 -0.52959138813881
 6 -6.50635615761576 -3.54858917441744 -0.08404089618962
 6 -6.13771855005500 -2.12630878537854  0.11208282968297
 6 -8.68553889858986 -4.70268308720872 -0.80161970897090
 6 -5.32051858955896 -4.40815680098010  0.28095659555956
 8 -5.24778614041404 -5.57280993459346  0.16547258205821
 6 -4.13176658665867 -3.31551448554855  0.49244013601360
 6 -3.53707807200720 -3.70045613021302  1.78810999069907
 8 -3.83513716831683 -3.07450068286829  2.83875759105911
 8 -2.64734608250825 -4.76917507000700  1.77354544254425
 6 -2.18321095959596 -5.16021649094909  3.04512584958496
 6  2.89103287988799 -0.58320757845785 -1.21859723462346
 6  4.18957227962796 -0.28410225962596 -0.55508803750375
 6  5.08870247764776  0.53174649914991 -1.03304320452045
 6  4.96386380298030  1.32784732103210 -2.23441053215322
 6  6.38343480108011  0.63621242814281 -0.26899358555856
 6  7.53963170207021 -0.01914379627963 -1.03305297399740
 6  8.94229331173117 -0.02564229772977 -0.19067166136614
 6  10.10411130413041 -0.47750484878488 -1.01967836223622
 6  10.00847803400340 -1.96844617951795 -1.39768142964296
 6  11.38415953305330 -0.28303919451945 -0.01171097239724
 6  12.80588775777578 -0.61388790469047 -0.81247178697870
 6  13.92251793959396 -0.26542330553055  0.23117033003300
 6  15.20458580258026 -0.21309392109211 -0.55484853515352
 6  15.65075917811781 -1.72320510631063 -0.95410269006901
 6  16.40397365136513  0.32844723082308  0.40573975867587
 6  17.86322202650265  0.49429755555556 -0.12776105600560
 6  18.70455585508551  1.33848569536954  0.80715307700770
 6  20.17339501930193  1.23108885348535  0.33683328692869
 6  20.18551878077808  2.14186983498350 -0.92710853225323
 6  21.05114298839884  1.85731010041004  1.46401310291029
 1 -4.14908516701670  3.63569195089509  1.62358687968797
 1 -9.99326307800780  4.13391097499750 -0.40862516511651
 1 -10.25971523332333 -2.36024607930793 -1.18359190669067
 1 -2.42235092579258 -1.02773243694369  1.92834007260726
 1 -2.29425906390639  1.80234872347235  1.17972233873387
 1 -1.95397912121212  1.04206969596960  3.39168938233823
 1 -2.89854464066407  2.45866532313231  3.50936550405040
 1 -3.72067304850485  0.75589995769577  3.51213509800980
 1 -1.66154868176818 -1.81173709410941 -0.13520850685069
 1 -1.73185738793879 -0.06049395809581 -0.83212831443144
 1 -0.14525161916192  0.53096101960196  1.08394064596460
 1 -0.03265921962196 -1.14793776917692  1.50560343624362
 1 -5.19136130383038  6.32739791489149  0.51625340754075
 1 -5.94000867116712  6.80519031783178  1.97319200840084
 1 -4.81455468426843  5.29714488588859  2.07454113281328
 1 -9.70786828572857  5.80024296039604  0.81193903840384
 1 -8.99437007740774  7.99980857035704  0.25961655495550
 1 -7.38385342194219  7.25188575777578 -0.48172264286429
 1 -11.83985939873988  3.38788609390939 -1.89909620802080
 1 -13.40081529502950  2.10179581768177 -1.78975249894989
 1 -12.69413637503751  2.89629271467147 -0.30201169916992
 1 -12.40514304240424 -1.81334373257326 -1.00600080798080
 1 -13.28778478207821 -0.30263407640764 -1.51151850885088
 1 -13.50110057625763 -1.86932817201720 -3.23186618431843
 1 -12.72214238823882 -0.45224395029503 -3.86068364336434
 1 -11.60369371697170 -1.76204914891489 -3.40212932843284
 1 -8.92707360326033 -4.63717656595660 -1.76589417081708
 1 -7.95339904090409 -5.72103221142114 -0.68334256235624
 1 -9.66222838863886 -4.85362214921492 -0.12309056525653
 1 -3.35620575257526 -3.40944252875288 -0.38131478447845
 1 -1.45672676267627 -4.23268164546455  3.51923861086109
 1 -2.99639482688269 -5.26136677907791  3.72283950605061
 1 -1.49447087358736 -6.08522269936994  2.85868257115712
 1  2.57089176027603 -1.60146983688369 -1.35919999629963
 1  3.01694339453945  0.10939385778578 -2.08382040184018
 1  4.52391161546155 -0.80095810201020  0.42494487068707
 1  3.76935787208721  1.16900799709971 -2.50295363766377
 1  4.93516681508151  2.37912230243024 -2.06796115071507
 1  5.75635095789579  1.26020635083508 -2.94471577087709
 1  6.67032005530553  1.59285551325133 -0.03394589688969
 1  6.14739808780878  0.24596134723472  0.51052205930593
 1  7.26895063716372 -1.14578565026503 -1.14720884958496
 1  7.28884041504150  0.25466234273427 -2.17103725062506
 1  9.08021411861186  1.12312492899290  0.00195415791579
 1  8.65830365316532 -0.50941929732973  0.82197681628163
 1  10.37306901840184  0.29177394369437 -1.84397822842284
 1  9.34948144454446 -2.20612765706571 -2.17807276847685
 1  10.87251033573357 -2.39091560416042 -1.96479266526653
 1  10.17949542314232 -2.69036065866587 -0.48093018371837
 1  11.61007576977698  0.80534494199420  0.09019098249825
 1  11.38968937863786 -0.79438177627763  0.90843831683168
 1  12.84068980468047 -1.55168202960296 -1.16430476537654
 1  13.18077698369837  0.04717419641964 -1.74641300510051
 1  13.70261176437644  0.73788704420442  0.60551721222122
 1  13.87429351965196 -0.97092953025303  1.12642781248125
 1  14.91445383748375  0.61379123952395 -1.39634929442944
 1  15.58613061406141 -2.26329305520552  0.23376577897790
 1  14.84961249304930 -2.24187238083808 -1.48640636103610
 1  16.44667272587259 -1.65052898149815 -1.55967807660766
 1  16.06975218491849  1.39043811651165  0.71067448844885
 1  16.48167986998700 -0.41971836753675  1.39049198089809
 1  18.21278046994700 -0.62560952475247 -0.14474048164816
 1  17.87169725092509  0.74867612611261 -1.23409689358936
 1  18.27345602840284  2.19357125672567  1.04417951885189
 1  18.54573085048505  0.84770838213821  1.80291664326433
 1  20.36189625632563  0.23339977577758  0.18929668006801
 1  20.07229406270627  3.18177716261626 -0.78210848034804
 1  21.20697681158116  2.20919679757976 -1.36659791379138
 1  19.72582341554155  1.65625702800280 -1.69224964826483
 1  21.27647766306631  1.19395869966997  2.43792323392339
 1  22.09774441494149  2.23106163736374  1.03960822702270
 1  20.62337487008701  2.74656833303330  1.68802473367337

