%nproc=4
%Mem=2GB
# td=(NStates=1) CAM-B3LYP/6-31G(d,p) 

TD

0 1
12 -7.11617328662866  0.62633087378738  0.12809085768577
 6 -4.85083396449645 -1.98398050935094  0.46871250615062
 6 -4.83906321262126  2.73956828412841  1.12490594779478
 6 -9.46031061986199  3.07923032243224 -0.33296462946295
 6 -9.58383941154115 -1.70668084308431 -0.87786590159016
 7 -5.05634841644164  0.39367062756276  0.79420694109411
 6 -4.34470207550755 -0.70568118851885  0.78480038283828
 6 -2.91109207040704 -0.42309758185819  1.14480992219222
 6 -2.93225351455146  1.01272240474047  1.74054686108611
 6 -4.31961004770477  1.46064644504450  1.24368062926293
 6 -2.98486627762776  1.15177166446645  3.30359388548855
 6 -1.86776105700570 -0.64006801690169  0.10362968876888
 6 -0.44815306930693 -0.34117234863486  0.51616019891989
 6  0.54571394979498 -0.67037046914692 -0.61262291409141
 8  0.24033458315832 -1.03508491229123 -1.74316359665967
 8  1.81485851085109 -0.47172207900790 -0.15329955005501
 7 -7.13020062856286  2.64782618991899  0.31108626542654
 6 -6.03011014201420  3.38247920182018  0.78260624462446
 6 -6.37205519521952  4.85305593599360  0.72499026352635
 6 -7.61923251865186  4.89116900360036  0.33502040904090
 6 -8.09748030123012  3.50480077137714 -0.02686234703470
 6 -5.55634141534153  5.89427051835183  1.34320084528453
 6 -8.58196740914092  6.05981104910491  0.32110213211321
 6 -8.24031322912291  7.37964404870487  0.18408414611461
 7 -9.17806284198420  0.62677915621562 -0.47510921622162
 6 -9.87149880888089  1.82090277287729 -0.63924904910491
 6 -11.21782652555256  1.43543453385339 -1.12304705430543
 6 -11.28947746844684  0.06345022232223 -1.30201946814681
 6 -10.02183206690669 -0.35470395849585 -0.87406670957096
 6 -12.42369061116112  2.44593687458746 -1.26884741564156
 6 -12.40905095079508 -0.78868993119312 -1.70784596179618
 6 -12.37458379037904 -1.15211909710971 -3.22097020242024
 7 -7.18163441554155 -1.39586894849485 -0.29432255095510
 6 -8.27174239653965 -2.18157409690969 -0.62347015291529
 6 -7.85099276677668 -3.57939212211221 -0.48848727772777
 6 -6.51938746074608 -3.53035735123512 -0.24335682778278
 6 -6.17557233543354 -2.19509566406641  0.04430605200520
 6 -8.58823916861686 -4.78626144504450 -0.94400394739474
 6 -5.25999253695370 -4.33597958325833  0.10653915381538
 8 -5.24539590139014 -5.61348400200020  0.07995403020302
 6 -4.17908131813181 -3.34267720182018  0.58974986698670
 6 -3.57010137433743 -3.78170425502550  1.90125130483048
 8 -3.89333298789879 -3.19303253605361  2.94401811711171
 8 -2.68438978687869 -4.70501865436544  1.70311839983998
 6 -2.03842648114811 -5.14515498479848  2.96345768276828
 6  2.81079485608561 -0.77332659035904 -1.12621799669967
 6  4.15701902430243 -0.56427027642764 -0.47574010271027
 6  5.14005761316132  0.31635495999600 -0.84360426062606
 6  5.00540795739574  1.13581811811181 -2.10205729682968
 6  6.44331078867887  0.42331113801380 -0.13008969516952
 6  7.65629336823682 -0.12502438433843 -0.85323499219922
 6  8.89408849124912 -0.03198293179318 -0.01878447264726
 6  10.18074896789679 -0.52613971227123 -0.77844423882388
 6  10.12928011421142 -1.90873020792079 -1.32786444794479
 6  11.44437555465547 -0.19866075667567  0.11816201490149
 6  12.83352052105210 -0.44449096499650 -0.57163770357036
 6  13.99096478427843 -0.21192795599560  0.32360957395740
 6  15.32582792679268 -0.27066967866787 -0.50516356665667
 6  15.61274537673767 -1.65059784558456 -0.99243652345235
 6  16.44748800280028  0.36778116421642  0.47593677837784
 6  17.76811251555156  0.44865299109911 -0.27789606950695
 6  18.82295769526953  1.31610345714571  0.65696805850585
 6  20.16194387418742  1.40866661126113  0.12690229382938
 6  20.28497872677267  2.18340398839884 -1.18153397479748
 6  21.23479135323532  2.01171554095410  1.18725542714271
 1 -3.98026828532853  3.50609899159916  1.41613613461346
 1 -10.11902565426543  4.07851543544354 -0.57541184378438
 1 -10.48182744454445 -2.47101715641564 -0.82798634613461
 1 -2.73340203090309 -1.14725438913891  2.05668290689069
 1 -2.19430906890689  1.79332782138214  1.33071743824382
 1 -1.73654737803780  1.16826231523152  3.55066527992799
 1 -3.40461524772477  2.26496595319532  3.49125369286929
 1 -3.53237421862186  0.43283765146515  3.75998988348835
 1 -1.91109363626363 -1.55930185058506 -0.45828081408141
 1 -2.27243144534453  0.05368746004600 -0.80079518111811
 1 -0.32059915391539  0.66992491599160  0.81855410731073
 1 -0.04170012371237 -0.83320629602960  1.36988986488649
 1 -4.95548771647165  6.39198437353735  0.50438222042204
 1 -6.36446111641164  6.41735153395340  1.95057974717472
 1 -4.86573980278028  5.52517768916892  1.89004268296830
 1 -9.69459695859586  5.74571750785079  0.34134197869787
 1 -9.06609725012501  8.11137972747275  0.37131772507251
 1 -7.22283732033203  7.77539810901090 -0.08313278387839
 1 -12.32792820562056  2.92598990429043 -2.36735303370337
 1 -13.47760297379738  1.89703534163416 -0.96161968566857
 1 -12.25113207460746  3.45134822022202 -0.61506300430043
 1 -12.47781030913091 -1.59244164236424 -0.95963617151715
 1 -13.20696670027003 -0.34996880988099 -1.37581493849385
 1 -13.22297276347635 -1.76057729692969 -3.37392038973897
 1 -12.65995616961696 -0.11746047194719 -3.57992556755676
 1 -11.45940928852885 -1.62443538753875 -3.44839395489549
 1 -8.88762965886589 -4.76119896819682 -1.89193677507751
 1 -7.94511821282128 -5.74718482668267 -0.76492072017202
 1 -9.49766193199320 -4.89181596859686 -0.19492774897490
 1 -3.28822895489549 -3.46965855035504 -0.12244889788979
 1 -1.46462755275528 -4.36767514481448  3.51888857585759
 1 -2.78439362676268 -5.64149479187919  3.61795901800180
 1 -1.39220064656466 -6.02586676377638  2.54060076297630
 1  2.55285995709571 -1.76083577347735 -1.36953102940294
 1  2.61970367056706 -0.24293137473747 -2.10197221702170
 1  4.33898312261226 -1.11040904710471  0.58902127832783
 1  4.02838377467747  1.23456455275528 -2.35179852215222
 1  5.52692599099910  2.21189557975798 -2.05656001060106
 1  5.39581490429043  0.56031636183618 -3.10381168046805
 1  6.59863288658866  1.46643287098710  0.01773927162716
 1  6.09031237923792 -0.12925617451745  0.80668167526753
 1  7.36681042314231 -1.04617568926893 -1.16743087178718
 1  7.78358988998900  0.42956983348335 -1.83561370827083
 1  9.12717881508151  1.14672728922892  0.26673063556356
 1  8.91359918271827 -0.65042339773977  1.03653827242724
 1  10.31783349484948  0.07424219051905 -1.50983481408141
 1  9.40619711611161 -2.02130917521752 -1.97238219941994
 1  11.14597768246825 -2.08886539913991 -1.91695788178818
 1  10.02147962156216 -2.56590821342134 -0.51723381408141
 1  11.18689345154515  0.95039944744474  0.48861082448245
 1  11.61620202990299 -0.93870620872087  1.05007248024803
 1  12.52874861056106 -1.49109597099710 -0.99700803570357
 1  12.71533043904391  0.15024450345034 -1.50738910271027
 1  14.14188569176918  0.82028528402840  0.85172183268327
 1  13.87728381868187 -0.88032046934693  0.99656482618262
 1  15.21309370147015  0.32404226462646 -1.41545120462046
 1  15.67727972897290 -2.19095582148215  0.06877928032803
 1  14.98226575837584 -2.08116631023102 -1.89352707310731
 1  16.59661772037204 -1.54781871047105 -1.53710581938194
 1  16.31085629532953  1.47071614431443  0.83684710571057
 1  16.33930563256326 -0.24946134183418  1.28501143284328
 1  18.24157334923493 -0.46657362116212 -0.77253326092609
 1  17.58751883308331  1.14118537703770 -1.08251173507351
 1  18.37887657045705  2.25476737633763  0.93432853375337
 1  18.95175145254525  0.80499411071107  1.52985933753375
 1  20.41730179687969  0.25436187198720 -0.05655790539054
 1  19.73179001230123  3.10057904280428 -0.92108237773777
 1  21.32396851075108  2.20982686058606 -1.48900015401540
 1  19.60311114431443  1.65566696899690 -1.83167359065907
 1  21.07888790409041  1.54895419921992  2.01952139373937
 1  22.10574521502150  1.70867939913991  0.62723698989899
 1  21.26640917351735  3.18331200740074  1.23809974117412

