%nproc=4
%Mem=2GB
# td=(NStates=1) CAM-B3LYP/6-31G(d,p) 

TD

0 1
12 -7.15887755705571  0.64310255095510  0.19935798439844
 6 -4.84288316941694 -1.91721383268327  0.52746838173817
 6 -4.87090639693969  2.85131945924592  1.25068852605261
 6 -9.50160474927493  3.05072747214721 -0.24809614261426
 6 -9.56510753835384 -1.75558573357336 -0.81432954795480
 7 -5.14274705630563  0.45841710221022  0.74445196559656
 6 -4.32120972627263 -0.67295791619162  0.77459936273627
 6 -2.91375233643364 -0.33475874797480  1.24582002320232
 6 -2.97868815801580  1.17966909940994  1.69198200460046
 6 -4.34002208890889  1.51436181658166  1.11864812601260
 6 -2.84461225222522  1.41147763506351  3.26903042914291
 6 -1.95151943284328 -0.53571758185819  0.07709703550355
 6 -0.45569382338234 -0.46558478987899  0.49568815171517
 6  0.56809618801880 -0.55836926902690 -0.80289194099410
 8  0.21275182488249 -0.78865026882688 -1.89753903420342
 8  1.76498352335234 -0.55203010981098 -0.37544176427643
 7 -7.22141975047505  2.63052445974597  0.37703286008601
 6 -6.14187131813181  3.33451440534053  0.80912889688969
 6 -6.53067105680568  4.76827745814581  0.85401316581658
 6 -7.89932052745274  4.82044193089309  0.36846375337534
 6 -8.29903045624562  3.50197048834883  0.06885722492249
 6 -5.59930571177118  5.86494758605861  1.22142866806681
 6 -8.68857807020702  5.96096116411641  0.35610563246325
 6 -8.42372156995700  7.28266435073507  0.02612835053505
 7 -9.14399943564356  0.71096757505751 -0.38732043734373
 6 -9.90453211221122  1.76283696629663 -0.56026115031503
 6 -11.19124386728673  1.44147513791379 -1.04656940654065
 6 -11.24791331203120  0.08637251455146 -1.18515778197820
 6 -9.96958684238424 -0.42923141124112 -0.73393269616962
 6 -12.34802304440444  2.42050433133313 -1.36721725262526
 6 -12.38451849754975 -0.77092815501550 -1.76501167836784
 6 -12.09576590859086 -1.12416630183018 -3.23108121352135
 7 -7.27404365646565 -1.40460982258226 -0.08140125882588
 6 -8.26136135843584 -2.23848978847885 -0.53617142304230
 6 -7.81385905340534 -3.64874905780578 -0.42966139513951
 6 -6.53302882488249 -3.59146346184618 -0.02030452255226
 6 -6.13635841404140 -2.16108226272627  0.18956057745775
 6 -8.67579792449245 -4.88303112201220 -0.83026257325733
 6 -5.32844938263826 -4.36460244554455  0.26557505740574
 8 -5.08174953675367 -5.58985163876388  0.13023905870587
 6 -4.23786719671967 -3.31104403850385  0.44973586558656
 6 -3.44244860906091 -3.68737482208221  1.75363654335434
 8 -3.73041669626963 -3.15433866666667  2.88669238453845
 8 -2.59702105000500 -4.65720387288729  1.54947303530353
 6 -1.98253089158916 -5.24454492379238  2.70516185318532
 6  2.85382915951595 -0.69720897859786 -1.32031740664066
 6  4.16746006840684 -0.45488933833383 -0.54866739543954
 6  5.12138574597460  0.28994231873187 -0.93370327052705
 6  5.19877729432943  1.27509204550455 -2.23607069816982
 6  6.37473393099310  0.53247205410541 -0.14737142334233
 6  7.54367210611061 -0.33496537843784 -0.83757342604260
 6  8.95042412481248 -0.20258999249925 -0.10975356955696
 6  10.15746663966397 -0.65396249454945 -0.83687008140814
 6  10.04631181738174 -2.08320765566557 -1.40559222072207
 6  11.41772288938894 -0.43291418201820  0.01821201990199
 6  12.82463963296330 -0.49566608250825 -0.70723126292629
 6  13.98963465126513 -0.17551431463146  0.20589780278028
 6  15.43387873187319 -0.25527813951395 -0.42888593889389
 6  15.81755585778578 -1.68089087488749 -0.73578085788579
 6  16.33731698569857  0.50690507660766  0.49744892959296
 6  17.77114281858186  0.64442256805681 -0.10522880278028
 6  18.82935833533353  1.31748359515952  0.78360072177218
 6  20.27027470727073  1.26145188978898  0.20317992159216
 6  20.33401363026303  2.12444809280928 -1.08498431983198
 6  21.18821669576958  1.90286465586559  1.22534923652365
 1 -4.18959921842184  3.63121150285028  1.51248576957696
 1 -10.21011476317632  3.82010959485949 -0.19261356395640
 1 -10.35512477427743 -2.48223827852785 -1.08023157065707
 1 -2.34800349104910 -0.95191485518552  1.98240547914791
 1 -2.28492813081308  1.66590507910791  1.02357672417242
 1 -1.69983370667067  1.08409389838984  3.33745395879588
 1 -2.89285407160716  2.39633909050905  3.35987055455545
 1 -3.50612159335934  0.76644101180118  3.82567645214522
 1 -2.14169669656966 -1.39690561096110 -0.40185517151715
 1 -2.21740594279428  0.12686477777778 -0.98573367496750
 1 -0.34050114411441  0.59306723022302  0.99071132303230
 1 -0.24496044974497 -1.53025600100010  1.18323119901990
 1 -4.73733590129013  6.20439561466147  0.44745652785279
 1 -6.08639330963096  6.89278907770777  1.50586527572757
 1 -4.98676190499050  5.33987915931593  1.97050072877288
 1 -9.70547804670467  5.88072100820082  0.36897474197420
 1 -9.15378601900190  8.04315290479048  0.29189978327833
 1 -7.48467350395040  7.79775034423442 -0.12225669626963
 1 -12.08272368516852  3.03784108940894 -2.21989828822882
 1 -13.08776398989899  1.75792143024302 -1.64614813851385
 1 -12.96493345474548  2.94704779017902 -0.58317981598160
 1 -12.37730025812581 -1.58316071427143 -1.23252346024603
 1 -13.44509051265127 -0.22136594959496 -1.67416477347735
 1 -12.74756522272227 -1.69146038523852 -3.67537053475348
 1 -11.96284645864587 -0.09920864676468 -3.62476005100510
 1 -11.05439878747875 -1.71651459545955 -3.24654376987699
 1 -9.04480537643764 -4.84397724602460 -1.78601618301830
 1 -8.00978467946795 -5.87484759295930 -0.49577380548055
 1 -9.68120028582858 -4.82440922792279 -0.22129038523852
 1 -3.44629476147615 -3.39027061156116 -0.34345099809981
 1 -1.35489657965797 -4.37458583588359  2.93354004100410
 1 -2.71079626702670 -5.30342098449845  3.43794101620162
 1 -1.49780120662066 -6.19014319141914  2.49527623052305
 1  2.84809948104811 -1.63819350925092 -1.81213528982898
 1  2.81655335553555  0.06179909830983 -1.99566158595860
 1  4.15751497579758 -0.93668167436744  0.45936831303130
 1  4.18090902720272  1.71323241954195 -2.27121046334633
 1  5.49020231863186  2.20801519171917 -1.84084843944394
 1  5.80861618441844  0.99734006420642 -3.10490178947895
 1  6.82675569886989  1.56446267396740 -0.15846834913491
 1  6.29751309930993  0.02392914401440  0.87328833593359
 1  7.44720846294630 -1.38687975967597 -0.94144827352735
 1  7.70756228722872  0.10616749324933 -1.88022816971697
 1  9.13905000220022  0.90153276977698  0.34351831433143
 1  8.85284310711071 -0.64755311071107  0.96945156375638
 1  10.12046375787579  0.13750851715172 -1.68112194279428
 1  8.87241373777378 -2.28992603690369 -1.87589255045505
 1  10.94413749844984 -2.31869838243824 -2.03887007300730
 1  10.09266674027403 -2.75986760936094 -0.47744983568357
 1  11.22309707190719  0.54267867536754  0.48585054845485
 1  11.49952036173617 -1.11200353845385  0.84214168716872
 1  12.99595533123312 -1.55746260766077 -1.07565590049005
 1  12.50430933693369  0.11216069506951 -1.66078444224422
 1  13.50745224842484  0.78637189268927  0.60094675517552
 1  13.72650874117412 -0.80859329662966  1.19202437213721
 1  15.27925031713171  0.17707756815682 -1.39450911041104
 1  15.61519352035203 -2.22676940284028  0.04178658105811
 1  15.21594912671267 -2.31718991259126 -1.60484820522052
 1  17.07402546114612 -1.86254018261826 -0.95666777557756
 1  15.88402361206120  1.44180325302530  1.01365478647865
 1  16.48117981998200  0.04483808810881  1.41286421812181
 1  18.15168436033603 -0.17664462826283 -0.70073608120812
 1  17.69458954015402  1.39061031953195 -0.91283476737674
 1  18.45032371517151  2.24125602520252  1.02422752365237
 1  18.86360263766376  0.90786439773977  1.74792114371437
 1  20.71363142984298  0.28579501530153 -0.24198644824482
 1  20.12591942524253  3.30053903880388 -0.75375564506451
 1  21.40140625452545  2.09095497339734 -1.30579183318332
 1  19.56698753195320  1.62741414371437 -1.71768219151915
 1  21.36965698099810  1.49887919171917  2.31664110571057
 1  22.33754839533954  1.86371490269027  0.96917118331833
 1  20.88384091669167  2.88904258045805  1.34538046924692

