%nproc=4
%Mem=2GB
# td=(NStates=1) CAM-B3LYP/6-31G(d,p) 

TD

0 1
12 -7.12698436773677  0.59817805850585  0.15290333893389
 6 -4.86267514861486 -1.92557466876688  0.54756039093909
 6 -4.94374368066807  2.84884921222122  1.11407486468647
 6 -9.44647923672367  3.02880527992799 -0.31026235923592
 6 -9.43728475607561 -1.77282745774577 -0.76777489248925
 7 -5.09579236083608  0.50224148464846  0.66661418181818
 6 -4.40062766806681 -0.62729334973497  0.75361726452645
 6 -3.04642560376038 -0.37245251735174  1.19693513471347
 6 -3.11133142234223  1.09782091459146  1.64397720412041
 6 -4.49654774147415  1.55414579497950  1.12129839103910
 6 -3.10661845284528  1.28621510881088  3.16998052415242
 6 -1.91746602750275 -0.45304931503150  0.06781610741074
 6 -0.45146340034003 -0.33697192859286  0.55303388628863
 6  0.61198057645765 -0.45761919401940 -0.53284493629363
 8  0.31318186788679 -0.86200760456046 -1.68619790009001
 8  1.77547457245725 -0.37626253305331 -0.08112233233323
 7 -7.19908751725173  2.67698910621062  0.41306646344634
 6 -6.11881901290129  3.45550650455046  0.68238622262226
 6 -6.51421941164116  4.83666429682968  0.92425018951895
 6 -7.80480107550755  4.82501238793879  0.36762366936694
 6 -8.14081463466347  3.48793908520852  0.12921326052605
 6 -5.52952873407341  5.92743383468347  1.38520504570457
 6 -8.76068528092809  5.87929299729973  0.28497851975198
 6 -8.40428962676268  7.22067815211521  0.08350408810881
 7 -9.03855889158916  0.67741421972197 -0.60612231753175
 6 -9.92452411141114  1.74427511011101 -0.52243736793679
 6 -11.21914665756576  1.42557354775478 -1.10947569716972
 6 -11.19755827652765  0.02910678797880 -1.17771703790379
 6 -9.88985886958696 -0.40277876597660 -0.86406570947095
 6 -12.44114235633563  2.39871215211521 -1.27170770167017
 6 -12.38154820052005 -0.77568863106311 -1.59088426562656
 6 -12.28229456145615 -1.26733061826183 -3.13705181058106
 7 -7.19629588168817 -1.45307466906691 -0.22234535323532
 6 -8.14011923422342 -2.26413235273527 -0.50148795469547
 6 -7.80561822932293 -3.59673385628563 -0.62126055505551
 6 -6.48040356235624 -3.59299361486149 -0.25365785788579
 6 -6.11986676487649 -2.20444659915992  0.01193281468147
 6 -8.60110045474547 -4.83640645954595 -0.92520206720672
 6 -5.22860939863986 -4.38161414671467  0.11478997889789
 8 -5.10408176997700 -5.56522917651765  0.15226126092609
 6 -4.09951336133613 -3.42772570667067  0.51833272527253
 6 -3.54872923712371 -3.69643572817282  1.94038521822182
 8 -3.68857251185119 -3.09659289208921  3.00539425472547
 8 -2.71179252715272 -4.68985713821382  1.76928501650165
 6 -2.11484412291229 -5.23610407970797  2.91428276527653
 6  2.77504128072807 -0.60420967866787 -1.18824419931993
 6  4.13221654405441 -0.28660250965097 -0.55938846754675
 6  5.18167177457746  0.40232355685569 -1.01847174737474
 6  5.13725114171417  1.23335787208721 -2.35421251235123
 6  6.47314377197720  0.51463026992699 -0.28880556675668
 6  7.72047978687869 -0.08106998889889 -0.94399406810681
 6  8.97186626902690 -0.15522525602560 -0.10396299049905
 6  10.26975786878688 -0.67485458375838 -0.94605099949995
 6  10.11406859305931 -2.06571590649065 -1.31996365786579
 6  11.42573369046905 -0.38163905450545  0.03788398709871
 6  12.79981715071507 -0.50371688758876 -0.75987652745275
 6  13.97044273207321 -0.14512127532753  0.13858107110711
 6  15.38468381238124 -0.25753836553655 -0.42219526982698
 6  15.65059916211621 -1.65029781558156 -0.96580386018602
 6  16.44811806580658  0.31681606770677  0.46165535023502
 6  17.86260196449645  0.58163628942894 -0.31602988288829
 6  18.84302970247025  0.97958980578058  0.73266562826283
 6  20.32520019981998  1.20657640224022  0.25150475407541
 6  20.33743397229723  2.16465211321132 -0.91064688608861
 6  21.03518139223922  1.90247461686169  1.42726942854285
 1 -4.05561582008201  3.39119750145015  1.33728824982498
 1 -10.39865361706171  3.74014159805981 -0.40581488408841
 1 -10.26562582438244 -2.39426948164816 -0.92978652615262
 1 -2.72490118081808 -1.10554021772177  2.01737897649765
 1 -2.36748638663866  1.69969845844584  1.04697906440644
 1 -2.21458518181818  1.03506899589959  3.62719293269327
 1 -3.40927571377138  2.28896835343534  3.39939450695069
 1 -3.99427040824082  0.80466483418342  3.69430331483148
 1 -2.26269879677968 -1.33518943934393 -0.52542752875288
 1 -2.00767496969697  0.44952704400440 -0.63160826242624
 1 -0.51289838383838  0.59849777327733  1.04133638553855
 1 -0.40957691139114 -1.18415139053905  1.41190406630663
 1 -4.84726689438944  6.22622779787979  0.53697547974797
 1 -6.19436410671067  6.76530632943294  1.66896158535854
 1 -4.93237646644664  5.59954512591259  2.08122180088009
 1 -9.84110160906090  5.63923685978598  0.39543738823882
 1 -9.18335897629763  7.96480507000700  0.08640923422342
 1 -7.45311034763476  7.54020458965897 -0.08697316791679
 1 -12.05697110991099  3.12892019731973 -2.07889418781878
 1 -13.30862607610761  1.78427406550655 -1.53080660436044
 1 -12.70397735913591  2.93186627202720 -0.34706620462046
 1 -12.58206073417342 -1.76113851205121 -1.00512071997200
 1 -13.27662366596660 -0.17222103510351 -1.29920727772777
 1 -13.25011547774777 -1.85125636483648 -3.25881887958796
 1 -12.22093226722672 -0.48676740264026 -3.79906748174817
 1 -11.44228757635764 -1.68164110811081 -3.23978309380938
 1 -9.11975287118712 -4.85740858915892 -1.94060164156416
 1 -8.03098679967997 -5.74131423962396 -0.76832106020602
 1 -9.68096026182618 -5.01107789478948 -0.31244950115012
 1 -3.39837996999700 -3.31550313481348 -0.26575322832283
 1 -0.90352144214421 -4.63348172547255  3.11994868186819
 1 -2.75790097749775 -5.40126076847685  3.82045926802680
 1 -1.78419984648465 -6.21267544464447  2.46994369726973
 1  2.75969064016402 -1.75486517641764 -1.48380245654565
 1  2.22848454865487  0.08918183658366 -2.03007502730273
 1  4.27171639593959 -1.09194720092009  0.30602297849785
 1  4.22640357665767  1.33776487278728 -2.97326066836684
 1  5.44563786218622  2.28549293949395 -2.24385874047405
 1  5.65283060586059  0.79120945114511 -3.21810310961096
 1  6.85661868516852  1.43742997069707  0.13843134083408
 1  6.32178552655266 -0.10506375527553  0.79898090519052
 1  7.52082582468247 -1.13583465516552 -1.18850297899790
 1  7.78910044104410  0.58319519601960 -1.85401554845485
 1  9.03331942914291  0.92058467496750  0.23215717821782
 1  8.78662648544855 -0.86265462086209  0.74345896449645
 1  10.47966967846785  0.32647741404140 -1.74091792239224
 1  9.16078257465747 -2.32297934223422 -1.87816277747775
 1  10.94244732943294 -2.26148266086609 -2.23776996299630
 1  10.32396987058706 -2.83497512011201 -0.37525961666167
 1  11.43329809200920  0.65751015851585  0.20829279267927
 1  11.51725213491349 -1.10125246334633  0.81360883388339
 1  13.07083281898190 -1.52538940034003 -0.98853718861886
 1  12.70603950995100  0.07314679367937 -1.56611497529753
 1  13.85694719791979  0.82772602810281  0.48230489098910
 1  14.02404849514951 -0.87561999929993  0.96526169586959
 1  15.37833022512251  0.46012587298730 -1.24432409190919
 1  15.69136113711371 -2.40527725362536 -0.14771236883688
 1  14.73605113691369 -1.83476166976698 -1.65600332073207
 1  16.63414147274728 -1.58943287188719 -1.52617472627263
 1  16.39173438313831  1.27025609830983  1.00504392539254
 1  16.58651035303530 -0.41626802250225  1.34565749744975
 1  18.41564075597560 -0.24470143394339 -0.68508451605160
 1  17.61675175637564  1.40708196669667 -1.09861334523452
 1  18.53883256605661  1.97103900350035  1.12670777167717
 1  18.80363664106411  0.24615822712271  1.51795814741474
 1  20.68708877557756  0.24947138293829 -0.23017526712671
 1  19.65532236553656  2.98744772967297 -0.69971024052405
 1  21.32757887178718  2.61007688558856 -1.18049930393039
 1  19.88423925712571  1.88645004730473 -1.99488991229123
 1  20.85957597289729  1.39430873467347  2.45240468206821
 1  22.04496913741374  1.92318084928493  1.23386765296530
 1  20.68051058365837  3.12355603180318  1.39968589978998

