%nproc=4
%Mem=2GB
# td=(NStates=1) CAM-B3LYP/6-31G(d,p) 

TD

0 1
12 -7.22934460376038  0.55352359305931  0.16263431203120
 6 -4.83352223332333 -1.88857096839684  0.49442507740774
 6 -4.91273057935794  2.79064339163916  1.27573103030303
 6 -9.39765435423542  3.03510590999100 -0.33941527452745
 6 -9.44442547014702 -1.77091726672667 -0.89064717971797
 7 -5.15889867146715  0.43642490299030  0.75081260166017
 6 -4.42670027532753 -0.68176879727973  0.86056795959596
 6 -2.90878183938394 -0.29589486158616  1.19930537173717
 6 -3.02772306150615  1.13999513201320  1.65718852525253
 6 -4.42212029872987  1.54117449784978  1.10257651885189
 6 -2.95555334633463  1.27531401870187  3.28236176227623
 6 -2.00873515441544 -0.40188419851985 -0.03851452565257
 6 -0.48181643564356 -0.17107533893389  0.39689827272727
 6  0.51709108750875 -0.47561099319932 -0.68312996479648
 8  0.28507905760576 -0.86080748454845 -1.86294557485749
 8  1.68685571057106 -0.10350525732573 -0.31008522862286
 7 -7.19723733223322  2.53726513381338  0.43887904470447
 6 -6.14220135113511  3.32946390029003  0.81862984698470
 6 -6.48491648134813  4.71625225562556  0.90224798929893
 6 -7.71446204160416  4.78760864756476  0.45441234823482
 6 -8.21408196139614  3.44397468876888  0.14305464466447
 6 -5.58981476267627  5.89226031733173  1.40727725292529
 6 -8.63942315471547  5.99206427442744  0.28603862576258
 6 -8.17166636443644  7.27314339863986  0.12683842154215
 7 -9.15575061076108  0.57338381668167 -0.49126083138314
 6 -9.86336799579958  1.69823050565056 -0.65954107830783
 6 -11.20337508040804  1.39505049544955 -1.12686743634363
 6 -11.24732325302530  0.09207308460846 -1.28481774797480
 6 -10.00385026872687 -0.43183167126713 -0.78915821872187
 6 -12.16330457255726  2.49099138003800 -1.45670620152015
 6 -12.37304735043504 -0.79055011721172 -1.68896407360736
 6 -12.31500783278328 -1.26897078227823 -3.10853895929593
 7 -7.25290154225423 -1.47635699729973 -0.12460557925793
 6 -8.26044126642664 -2.27367330683068 -0.53115092099210
 6 -7.77850551805180 -3.65315949884989 -0.59211764076408
 6 -6.46087160916092 -3.62235655115512 -0.07649014111411
 6 -6.14592937113711 -2.19445560006001  0.14587620902090
 6 -8.59337968266827 -4.97590040894089 -0.79416896389639
 6 -5.29231576927693 -4.39829581488149  0.18364686458646
 8 -5.16529789158916 -5.58709136273627  0.18035407020702
 6 -4.13169657965797 -3.25325825992599  0.53911480348035
 6 -3.57391175537554 -3.67038312291229  1.90941212091209
 8 -3.72774642924292 -3.17943117591759  3.06786050135014
 8 -2.77391873977398 -4.73192134463446  1.69268735673567
 6 -2.09183182168217 -5.26153662296230  2.81171250825083
 6  2.71153493009301 -0.48114737243724 -1.28850422532253
 6  4.13603692609261 -0.39405325472547 -0.56353888258826
 6  5.16200980838084  0.40783410791079 -1.01053095329533
 6  5.16071348794879  1.28224276057606 -2.18353544464446
 6  6.45232168976898  0.44234304120412 -0.19451613781378
 6  7.59021676057606 -0.23279516141614 -1.01268093679368
 6  8.91075015741574 -0.02371210471047 -0.26312890709071
 6  10.18099899289929 -0.58394549284928 -0.92086848124813
 6  10.10463764996500 -2.13327266216622 -1.13528519001900
 6  11.46015713281328 -0.27637852845285 -0.10394019531953
 6  12.80049721872187 -0.56773328922892 -0.78755929572957
 6  13.96121180898090 -0.12248901210121  0.11793900690069
 6  15.39166451045105 -0.26586919861986 -0.45731878217822
 6  15.73698780098010 -1.76171895769577 -0.89905718551855
 6  16.44286754075407  0.34901928802880  0.55412459715972
 6  17.86644234853485  0.53076120192019 -0.08297657755776
 6  18.86577197669767  1.16788863566357  0.81131349304930
 6  20.33461114091409  1.28544428902890  0.22540214381438
 6  20.30901113001300  2.11252690069007 -0.99364518591859
 6  21.26896477057706  1.91970634003400  1.28575527712771
 1 -4.06150640914091  3.40520890259026  1.33170769176918
 1 -10.18339209090909  3.73643122702270 -0.61648595119512
 1 -10.39866912871287 -2.54392444714471 -0.84704825232523
 1 -2.50779947064706 -0.91989165286529  1.97022426102610
 1 -2.26139577757776  1.58404689328933  1.02851721822182
 1 -1.98941266456646  0.62712820182018  3.56966718011801
 1 -3.06775156135614  2.42528198479848  3.50572514001400
 1 -3.84778575977598  0.83807817551755  3.84875876037604
 1 -1.95298782568257 -1.41919784018402 -0.52796778277828
 1 -2.21399560176018  0.26274836613661 -0.72725782738274
 1 -0.39466656065606  1.01922984648465  0.83955620752075
 1 -0.11628758245825 -0.84372734813481  1.23674655055506
 1 -4.97507967566757  6.51656683178318  0.70081186338634
 1 -6.31172584288429  6.63342314111411  1.79234392359236
 1 -4.95073830263026  5.56188135953595  2.20976465516552
 1 -9.69900739963996  5.73329626572657  0.58718656315632
 1 -8.78465910631063  8.17174576407641  0.11791238453845
 1 -7.18834387098710  7.46359692889289 -0.27529199979998
 1 -12.00446585938594  2.97341464676468 -2.50622692109211
 1 -13.11173638713871  2.01456709480948 -1.54400792449245
 1 -12.32984994639464  3.29824290969097 -0.65297679567957
 1 -12.14735726382638 -1.72646504470447 -1.25775598349835
 1 -13.41176718031803 -0.24543835683568 -1.56423378037804
 1 -13.20756122232223 -1.73426466566657 -3.32279527722772
 1 -12.26387656165617 -0.32574130003000 -3.63403097809781
 1 -11.67711105870587 -2.03121606560656 -3.42358147364737
 1 -9.24769566546655 -5.00614346264626 -1.60185776717672
 1 -7.90811451245125 -5.75918602680268 -0.90918514661466
 1 -9.40016218201820 -4.92450923792379  0.04037578137814
 1 -3.30677080908091 -3.18494007850785 -0.15395204820482
 1 -1.44345543554355 -4.45561393869387  3.13676036303630
 1 -2.80944613201320 -5.69883052545254  3.43813103520352
 1 -1.47277870437044 -6.14568874597460  2.47834453735374
 1  2.69600427152715 -1.61497118701870 -1.61132520882088
 1  2.63292499269927  0.43143606200620 -1.99281130093009
 1  4.28899812411241 -0.87220522672267  0.33631600780078
 1  4.07028796509651  1.38983007930793 -2.50345368766877
 1  5.31488478687869  2.25255964616462 -1.82078643324332
 1  5.95465078787879  1.02466279647965 -2.90838213751375
 1  6.65749877317732  1.51602783048305 -0.19329183148315
 1  6.29339268726873  0.09082583368337  0.87510851795180
 1  7.16272001410141 -1.12985405710571 -1.21288541724172
 1  7.59517104810481  0.35977285378538 -1.99009915681568
 1  8.93721981918192  1.04724734123412 -0.12675871337134
 1  8.80161798459846 -0.55005336073607  0.57157177577758
 1  10.22332404390439  0.02317708400840 -1.86702053265326
 1  9.27664416081608 -2.57216426072607 -1.50191515271527
 1  10.96113919861986 -2.41292780538054 -1.76278246424642
 1  10.47282475607561 -2.82312393499350 -0.19681177187719
 1  11.62396715891589  0.86741114861486  0.04507647104710
 1  11.57601801150115 -0.73892623072307  1.00268774177418
 1  12.76620235593559 -1.63030989238924 -0.98008634353435
 1  12.93633253925393  0.09956943594359 -1.71407977177718
 1  13.77763926712671  1.04546780228023  0.13195985648565
 1  14.10190628092809 -0.49391182848285  1.26325149484948
 1  15.45237762986299  0.36055591599160 -1.39403906340634
 1  15.60818281928193 -2.40629735563556  0.11372377477748
 1  15.05006253805381 -2.10338853245325 -1.61077879827983
 1  16.70743880248025 -1.78942287088709 -1.26525863466347
 1  16.10606581628163  1.46733580628063  1.03095651665166
 1  16.25240694269427 -0.40893728942894  1.35141807350735
 1  18.19016820872087 -0.50505746954695 -0.37550355795580
 1  17.80609069026903  1.20480173867387 -1.05276876077608
 1  18.40709939273927  2.09573147274727  1.16392149304930
 1  19.07672394979498  0.55532914421442  1.69244559615962
 1  20.60355042174217  0.04130056585659  0.05296304670467
 1  19.84947178047805  3.12958194309431 -0.77249751925193
 1  21.19073518741874  2.48581445934593 -1.26451770577058
 1  19.84011484468447  1.27112851515152 -1.89299972327233
 1  21.10900091539154  1.16719602340234  2.19946938853885
 1  22.37433207370737  1.90737926912691  0.89450371657166
 1  20.94676720932093  3.00145382158216  1.41106703790379

