%nproc=4
%Mem=2GB
# td=(NStates=1) CAM-B3LYP/6-31G(d,p) 

TD

0 1
12 -7.21554322362236  0.56993523422342  0.23197124572457
 6 -4.85817469856986 -1.96116822812281  0.46815245014501
 6 -4.81720102640264  2.83180750805080  1.26162962016202
 6 -9.40121471027103  3.09996239563956 -0.38986031903190
 6 -9.61651267886789 -1.67189736473647 -0.86780489548955
 7 -5.12129491109111  0.44650591109111  0.74155167556756
 6 -4.40928853415341 -0.69963058345835  0.75255715851585
 6 -2.98278924012401 -0.42514778687869  1.35028046924692
 6 -3.05687597679768  1.05575670817082  1.65895870227023
 6 -4.44288237493749  1.50644102450245  1.20976723792379
 6 -2.94458224922492  1.34519100640064  3.24508803490349
 6 -1.99109339023902 -0.63646765686569  0.25451477727773
 6 -0.44387264126413 -0.31680991239124  0.59428801170117
 6  0.47877725612561 -0.61821525362536 -0.49888153995400
 8  0.20970151985199 -0.99736113991399 -1.62889216951695
 8  1.78479550455046 -0.49680458725873 -0.10486470657066
 7 -7.16042365086509  2.56596800410041  0.38377353415342
 6 -6.06264339533953  3.24101505540554  0.83961194519452
 6 -6.45100309000900  4.66528715911591  0.89180694519452
 6 -7.68690928632863  4.81644153085309  0.45037194419442
 6 -8.15160571377138  3.49916020732073  0.08114845404540
 6 -5.51808758995900  5.71929302060206  1.38441496669667
 6 -8.51593080548055  6.05334040204020  0.36015603750375
 6 -8.09870906870687  7.22600868516852  0.01930766846685
 7 -9.12310734643464  0.62238871717172 -0.41174287958796
 6 -9.80102176117612  1.77916859945995 -0.66733185738574
 6 -11.15936067896790  1.43804479487949 -1.05596034563456
 6 -11.23639215991599  0.07565144244424 -1.22253151935194
 6 -9.98639852355235 -0.34675316341634 -0.84853415631563
 6 -12.30153839593959  2.45851813271327 -1.49359989088909
 6 -12.31744178987899 -0.77853891609161 -1.86166134333433
 6 -12.13407973997400 -1.16917080228023 -3.30597870327033
 7 -7.17912416451645 -1.39146850845085 -0.14011713041304
 6 -8.27302252455246 -2.25491143064306 -0.47445525142514
 6 -7.88353602110211 -3.55605978887889 -0.42577100610061
 6 -6.53436895889589 -3.54421873737374 -0.13998649074907
 6 -6.18332311051105 -2.20595675017502  0.10365198659866
 6 -8.56452679737974 -4.87362018091809 -0.73527307430743
 6 -5.31008754645465 -4.36956294159416  0.15542404230423
 8 -5.17184854665467 -5.57104975857586  0.05885191999200
 6 -4.14337774777478 -3.30723365746575  0.45798669066907
 6 -3.47232159635964 -3.66268235283528  1.67495867556756
 8 -3.84145780038004 -3.11104433723372  2.79531324662466
 8 -2.60856220412041 -4.65148330083008  1.66794488248825
 6 -2.17016965546555 -5.13496396569657  2.97461879887989
 6  2.70083385998600 -0.63277253495350 -1.13118849374937
 6  4.14637796019602 -0.34620847024702 -0.60308283698370
 6  5.05489909730973  0.41179450395040 -0.98749865006501
 6  5.07080449704971  1.27424196049605 -2.24381147224722
 6  6.39767622522252  0.47005581248125 -0.41711839803980
 6  7.66891463036304 -0.15143702560256 -1.15277494619462
 6  8.97297638003800 -0.15477521102110 -0.21744433863386
 6  10.23007390039004 -0.54821191949195 -0.95841223562356
 6  10.04571175737574 -1.96730606550655 -1.37155881738174
 6  11.37553867096710 -0.27122801340134  0.00709090779078
 6  12.75449261826183 -0.50924744064406 -0.66875741554155
 6  13.87908359615962 -0.20514727792779  0.21553876687669
 6  15.38144348834883 -0.22054466616662 -0.45513856415642
 6  15.67358146034604 -1.74970775657566 -0.78509578937894
 6  16.42731598559856  0.26872125822582  0.51228041274127
 6  17.81551725602560  0.63317144294429 -0.19157743764376
 6  18.77404280378038  1.27434928172817  0.85885824752475
 6  20.28371605140514  1.32455820042004  0.26853645724572
 6  20.41047127602760  2.10986663466347 -1.18942476387639
 6  21.20812868696870  2.08567293669367  1.22928963056306
 1 -4.21839209770977  3.55524390609061  1.53837835883588
 1 -10.28778252995300  3.74138172207221 -0.73269757235724
 1 -10.40763002480248 -2.51865191989199 -0.91462501000100
 1 -2.88541723242324 -1.10539020272027  2.20618785738574
 1 -2.36862650065007  1.73931241984198  1.20782514901490
 1 -2.16031975527553  0.92734822382238  3.69559977337734
 1 -3.33709849604961  2.24278373497350  3.30817538503850
 1 -3.81837281848185  0.70952532023202  3.69502338683868
 1 -1.80833336023602 -1.72677859825983 -0.19265425142514
 1 -2.39119332153215 -0.11667957665767 -0.82426752835284
 1 -0.22568966296630  0.68091601510151  1.07709996189619
 1 -0.29939589328933 -0.89238221362136  1.46215909180918
 1 -4.45632780048005  6.10356553165317  0.86016779897990
 1 -6.17791246154615  6.59185898469847  1.68938362756276
 1 -5.19020224902490  5.62664783618362  2.38820249894989
 1 -9.57953545244524  5.80893382948295  0.44945278977898
 1 -8.93417405780578  8.18500709020902 -0.03515292199220
 1 -7.03719875647565  7.49472004120412 -0.10960543114311
 1 -12.07657307010701  3.06912421772177 -2.59100539893989
 1 -13.15150036353635  2.02335797389739 -1.65080860456046
 1 -12.55077203860386  3.38988207360736 -0.78001949994999
 1 -12.35601812991299 -1.56668906710671 -1.18191839973997
 1 -13.31174717831783 -0.34314812781278 -1.60458781578158
 1 -12.83155362156216 -1.89614085328533 -3.63247624532453
 1 -12.05448562256226 -0.19657838373837 -3.84461203620362
 1 -11.13392674027403 -1.54569751375137 -3.41816093159316
 1 -9.23311420732073 -4.63568641694169 -1.84412199359936
 1 -8.05552925392539 -5.59246935513551 -0.65850007810781
 1 -9.44774694049405 -5.16764355135514 -0.17943619981998
 1 -3.31254138613861 -3.48443002750275 -0.18946559955996
 1 -1.46647773777378 -4.27104548184818  3.33817050405040
 1 -3.06224141154115 -5.74452509490949  3.52100932303230
 1 -1.49762118861886 -5.95249942704270  2.76795349824983
 1  2.67781245234523 -1.69979966986699 -1.12816689298930
 1  2.52296399659966  0.03930684908491 -1.98622064186419
 1  4.05618484278428 -0.99628763496350  0.39946232243224
 1  4.02082301860186  1.48877997429743 -2.65326866916692
 1  5.43959725812581  2.34154854505451 -2.27351170577058
 1  5.50170549334933  0.70538086828683 -3.15483678297830
 1  6.62635565886589  1.37237346504650 -0.35107761006101
 1  6.34920826882688  0.02071882298230  0.70703171027103
 1  7.21014475657566 -1.07462853455346 -1.51042517121712
 1  7.83297482848285  0.42702957945795 -2.15074522142214
 1  8.86822291949195  0.83331594809481  0.16944090659066
 1  8.79553737653765 -0.84730308570857  0.73609822842284
 1  10.38186989848985 -0.00374560826083 -1.83783761436144
 1  9.22413891029103 -1.80473751805180 -2.20013497469747
 1  10.87147023172317 -2.52653916651665 -1.79973615961596
 1  9.49044651825183 -2.60582220482048 -0.78795088578858
 1  11.22843760596060  0.85534994249425  0.30774273767377
 1  11.29696010571057 -0.92684502260226  0.87219469246925
 1  12.87557329302930 -1.39174603600360 -0.96486482138214
 1  12.96357526352635  0.01449092809281 -1.54562292609261
 1  13.89900140334034  0.77600085558556  0.71652831333133
 1  13.99529561986199 -0.99246168346835  1.09615478517852
 1  15.43979637173717  0.16896675707571 -1.31540119961996
 1  15.73174517551755 -2.44137086298630  0.08033043544354
 1  14.86860439223922 -2.14762295589559 -1.56126384678468
 1  16.61090914951495 -1.89759368796880 -1.27739984878488
 1  16.09543475317532  1.30953002570257  1.03048646964696
 1  16.60778248024803 -0.34909130483048  1.35120805250525
 1  18.16717590949095 -0.40654761856186 -0.76845285288529
 1  17.58177825902590  1.41633289178918 -0.99896338023802
 1  18.41283996679668  2.49633153275327  1.06759186008601
 1  18.71612789018902  0.75960957225723  1.78282463406341
 1  20.46661672837283  0.37279371517152 -0.00265251485148
 1  20.31621845514552  3.20133911881188 -1.01971224072407
 1  21.35785189908991  1.93684956285629 -1.48196945094509
 1  19.69853068626863  1.73230463276328 -1.93131355465546
 1  21.42830284558456  1.70861016481648  2.30515995759576
 1  22.26082072257226  1.96553508470847  0.89713397959796
 1  20.87290982358236  3.24781845804580  1.12325825702570

