%nproc=4
%Mem=2GB
# td=(NStates=1) CAM-B3LYP/6-31G(d,p) 

TD

0 1
12 -7.08412008130813  0.63694193489349  0.18555660426043
 6 -4.86153503460346 -1.87318943024302  0.54926056095610
 6 -4.84763406970697  2.89333366066607  1.27576103330333
 6 -9.50740532933293  3.09169156855686 -0.25869720272027
 6 -9.42132315991599 -1.72677285228523 -1.01784989999000
 7 -5.19362214381438  0.48129939043904  0.83458097849785
 6 -4.34549215451545 -0.66447706810681  0.80707261006101
 6 -2.94973593479348 -0.28025329742974  1.18577401860186
 6 -3.12224251345134  1.08861999449945  1.71431423782378
 6 -4.43704179087909  1.51385176557656  1.27338359955996
 6 -2.89554734573457  1.32404889218922  3.14973849995000
 6 -1.90026430733073 -0.49517352745275  0.18588791459146
 6 -0.47826608060806 -0.37583581498150  0.63490207310731
 6  0.52353173157316 -0.60678411051105 -0.46809846164616
 8  0.15344589428943 -0.99021042484248 -1.57534681498150
 8  1.77806483148315 -0.21017592439244 -0.08824304440444
 7 -7.22120972947295  2.59563097039704  0.46458161496150
 6 -6.11898902990299  3.40329128302830  0.84699268326833
 6 -6.50054804450445  4.73006363676368  1.00100786528653
 6 -7.86466706210621  4.89571945864586  0.50905781278128
 6 -8.26923747694769  3.48317860916092  0.15913625282528
 6 -5.67671345254525  5.95927701900190  1.29432595779578
 6 -8.65681489388939  6.11171623962396  0.29959998189819
 6 -8.22147134493449  7.29687577187719  0.13496923462346
 7 -9.14621965766577  0.63426990529053 -0.54681638693869
 6 -9.91163282228223  1.77163784638464 -0.64779990419042
 6 -11.22045678857886  1.37778876927693 -1.13058780838084
 6 -11.18448696939694 -0.04379050175017 -1.41716098229823
 6 -9.84849473317332 -0.39732822092209 -0.98396769966997
 6 -12.37815605770577  2.29234151505150 -1.38951948284828
 6 -12.29092913861386 -0.91738280048005 -1.97263244044404
 6 -12.13532986498650 -1.09998388358836 -3.45176328172817
 7 -7.13149940204020 -1.43637299889989 -0.25668878757876
 6 -8.12389761206121 -2.27961390089009 -0.63189099499950
 6 -7.80655832333233 -3.67026120902090 -0.53135156415642
 6 -6.46898242024202 -3.58310262576258 -0.07887037913791
 6 -6.17778255645565 -2.23014916941694  0.08815043644364
 6 -8.55257560226022 -4.82431525042504 -0.97735728272827
 6 -5.29517605530553 -4.37387337263726  0.20572907280728
 8 -5.11093245504550 -5.57966061966197  0.23359939473947
 6 -4.16837024702470 -3.28760169426943  0.52379327132713
 6 -3.56120048424842 -3.58891497609761  1.84564574427443
 8 -3.93096675127513 -3.18368160096010  2.91148486378638
 8 -2.63230457835784 -4.72477062956296  1.70226831483148
 6 -2.10733337183718 -5.17040751005100  2.92877421442144
 6  2.80814459105911 -0.64412367006701 -1.18958433333333
 6  4.08518184058406 -0.52716656605661 -0.54620714941494
 6  5.03315692309231  0.38272159665967 -0.80592049224922
 6  4.91096851345134  1.45350988728873 -1.92329942104210
 6  6.45613207080708  0.37998680558056 -0.11371805800580
 6  7.59687742664266 -0.35541742364236 -0.86885655435544
 6  8.93974305670567 -0.19472920642064 -0.14394698889889
 6  10.24519541254125 -0.70078717701770 -0.91091748614861
 6  10.05681286748675 -2.15378471337134 -1.29102076357636
 6  11.37151826892689 -0.39937082768277 -0.06674647594759
 6  12.77551472047205 -0.62717923382338 -0.80658119791979
 6  13.89289497729773 -0.06132289548955  0.17299451245125
 6  15.39295463946395 -0.29343195489549 -0.47725077537754
 6  15.77889199139914 -1.66966975277528 -0.90986826662666
 6  16.43463671767176  0.42148653475348  0.44154333903390
 6  17.89647535183519  0.52258038383838 -0.32663094299430
 6  18.89638503800380  1.28096994379438  0.67772013371337
 6  20.30846852665266  1.33997974257426  0.02727233083308
 6  20.39840006890689  2.15072072007201 -1.22821864326433
 6  21.19862773687369  1.93103747314731  1.20098680028003
 1 -4.12542280078008  3.57222560426043  1.38877339833983
 1 -10.22690644234423  3.91435901980198 -0.55704000660066
 1 -10.14005326712671 -2.54413446814681 -1.32835638313831
 1 -2.51952064276428 -1.23523318701870  1.80910814941494
 1 -2.32500213821382  1.89096758535854  1.36924129062906
 1 -1.76208993229323  1.04460994999500  3.42001221462146
 1 -3.23305809200920  2.40630008660866  3.61004557205721
 1 -3.62569355055506  0.72464683238324  3.66983086758676
 1 -1.98767129402940 -1.51108702910291 -0.35510049604960
 1 -1.94382858505851  0.16946903820382 -0.79752485408541
 1 -0.38436553055306  0.49456738023802  1.18520077197720
 1 -0.41191714541454 -1.13372634803480  1.48072094799480
 1 -5.19703187088709  6.40979615471547  0.24908669086909
 1 -6.15127979827983  6.70665046384638  2.04882957215722
 1 -4.90364359315932  5.70921609300930  2.18942262096210
 1 -9.67427492639264  5.84732766886689  0.30207805230523
 1 -8.99627026742674  7.94902349184918 -0.02066147284728
 1 -7.20320535713571  7.62275284448445 -0.00326479707971
 1 -12.17664307710771  2.85668297359736 -2.26219251765176
 1 -13.26768198169817  1.71056669476948 -1.48169169286929
 1 -12.47204416581658  3.10651373677368 -0.50249174717472
 1 -12.21127365546555 -1.96224862306231 -1.49093930183018
 1 -13.33556956055606 -0.38824263726373 -1.63055041204120
 1 -12.84232469866987 -1.57835907510751 -3.94921791949195
 1 -11.96414658865887 -0.18457718361836 -4.11289886488649
 1 -11.12393574117412 -1.55668861286129 -3.67802691819182
 1 -8.95132602850285 -4.59823267156716 -2.12698027942794
 1 -7.98907260826083 -5.78488859705971 -0.90054428252825
 1 -9.60764293009301 -5.04245103210321 -0.46070432663266
 1 -3.32707283928393 -3.25050663516352 -0.21304795779578
 1 -1.53182427242724 -4.58630700800080  3.35176186318632
 1 -2.89815500290029 -5.66334697709771  3.45888311041104
 1 -1.32665409190919 -5.87077125422542  2.71557826072607
 1  2.75980065116512 -1.62310200010001 -1.30121419771977
 1  2.65221692189219  0.13916683508351 -2.08265028482848
 1  4.26532575687569 -0.95375338153815  0.60479285548555
 1  3.98051898819882  1.44108520482048 -2.42370571287129
 1  4.99369266766677  2.33862825302530 -1.37351170577058
 1  5.58461378417842  1.35197552775278 -2.90784208350835
 1  6.68084110741074  1.53462969066907  0.09746724442444
 1  6.49978332633263  0.10391714281428  1.12773378047805
 1  7.17503124522452 -1.30484155585559 -1.04360848954896
 1  7.62461399239924  0.15821269776978 -1.79289943684368
 1  9.10215631283128  0.96160877737774  0.07498146064606
 1  8.88497632043204 -0.76674502990299  0.79418403700370
 1  10.08930064156416 -0.17951318501850 -1.63835766636664
 1  9.14036053245325 -2.48673571787179 -1.92536749794979
 1  10.80913399809981 -2.45339185178518 -1.91018720472047
 1  9.99679715331533 -2.79063068566857 -0.36505859655966
 1  11.44494925712571  0.65302971047105  0.24904686808681
 1  11.53988439813981 -1.00124246234623  0.90508798179818
 1  12.79145488118812 -1.81872873427343 -0.93824215911591
 1  12.89927883388339  0.03406288528853 -1.85923428722872
 1  13.61263276647665  1.04962821832183  0.42090875137514
 1  13.80548663896390 -0.50184262156216  1.15253042274227
 1  15.52923531563156  0.31525138553855 -1.33478313781378
 1  15.71105310631063 -2.54752147804780 -0.06477407500750
 1  15.02805033683368 -1.97052524612461 -1.44267198759876
 1  16.80015807440744 -1.56629055765577 -1.37327943674367
 1  16.05348055775578  1.35244431713171  0.66586000700070
 1  16.58621032303230 -0.19309570527053  1.56170910261026
 1  18.37258645054506 -0.59570653445345 -0.50174618221822
 1  17.77429751095110  1.17223848234823 -1.15655913981398
 1  18.41401008380838  2.20550244984498  0.78775387628763
 1  18.78226450385039  0.73870748204820  1.64683103470347
 1  20.68192825952595  0.34691112691269 -0.05942819241924
 1  19.88181501480148  3.20516950185019 -1.18630890039004
 1  21.53534964886489  2.40620649854985 -1.52033328732873
 1  19.96129696289629  1.56837824012401 -2.10155057835784
 1  21.21969198449845  1.30146945074507  2.21783122472247
 1  22.33009765026503  2.30502903410341  1.01412567876788
 1  20.62295482808281  2.91403507970797  1.46873280448045

