%nproc=4
%Mem=2GB
# td=(NStates=1) CAM-B3LYP/6-31G(d,p) 

TD

0 1
12 -7.11691336063606  0.72070031073107  0.10617866646665
 6 -4.89714859595960 -2.00388249954996  0.49367500240024
 6 -4.76295560186019  2.81889621692169  1.11410486768677
 6 -9.43796838563856  3.09757215661566 -0.34713604660466
 6 -9.46316734433443 -1.73776395139514 -0.78388650365036
 7 -5.03965674727473  0.44498575907591  0.66118363876388
 6 -4.28278588388839 -0.76703732413241  0.78292019481948
 6 -2.85464642584258 -0.50347561966197  1.17483292449245
 6 -2.96101639083908  0.95975710821082  1.62299510591059
 6 -4.34228231493149  1.49201958235824  1.16854311551155
 6 -2.82139993099310  1.26763325062506  3.10170369646965
 6 -1.89820410131013 -0.76374038413841 -0.03886456065607
 6 -0.45455370937094 -0.42948117951795  0.39509809270927
 6  0.53800317871787 -0.67996142824282 -0.67029868166817
 8  0.16199674937494 -1.04055545934593 -1.83570285058506
 8  1.76562358735874 -0.54336924372437 -0.23388760886089
 7 -7.11429903840384  2.65233664096410  0.29454461126113
 6 -6.01563869486949  3.39694064796480  0.75464344834483
 6 -6.44501249094910  4.72878350875088  0.91581934643464
 6 -7.67082767816782  4.86382626932693  0.49055596259626
 6 -8.19156971017102  3.51581187248725  0.07351769096910
 6 -5.45302108330833  5.87044813611361  1.27704422962296
 6 -8.61069028142814  6.02355742374237  0.35913593549355
 6 -8.27831702950295  7.32361844614461 -0.01195545784578
 7 -9.15006004170417  0.68379485778578 -0.45141684698470
 6 -9.90065172417242  1.81757243984398 -0.57241236543654
 6 -11.23757850075008  1.46163715411541 -1.10535528512851
 6 -11.32849136983698  0.04322820012001 -1.10312957915792
 6 -9.92588247194719 -0.44335282338234 -0.87699700260026
 6 -12.32923116521652  2.49147142804280 -1.28143867476748
 6 -12.42428247394739 -0.74143520572057 -1.53026820402040
 6 -12.48569490149015 -1.13209709490949 -3.04426253165317
 7 -7.26560281238124 -1.38636799839984  0.00353723502350
 6 -8.25756097839784 -2.13443938343834 -0.48628643454345
 6 -7.86927459495950 -3.57730191309131 -0.48071650065007
 6 -6.51583710571057 -3.62292660816082 -0.14156664876488
 6 -6.10371514971497 -2.25101125562556  0.14991661306131
 6 -8.75415576027603 -4.75886870577058 -0.84439398639864
 6 -5.33099963766377 -4.34623060836084  0.09178767866787
 8 -5.21332269406941 -5.61278393199320  0.06474250905090
 6 -4.19318272827283 -3.33512644674467  0.53710460246025
 6 -3.63963832803280 -3.70197628222822  1.83985516521652
 8 -3.76255991059106 -3.05417865066507  2.84351806710671
 8 -2.81901324922492 -4.89798795129513  1.75413350135013
 6 -2.21208384688469 -5.27650812011201  2.97193853085309
 6  2.89027280388039 -0.68726798449845 -1.35779115401540
 6  4.16630995339534 -0.39727357675768 -0.55292782148215
 6  5.10895450285028  0.35194851935193 -1.05522542274227
 6  5.10811822842284  1.13744828112811 -2.34178126922692
 6  6.42521897949795  0.38453726062606 -0.28031471767177
 6  7.65553329222922 -0.22300418231823 -1.04009367806781
 6  8.93238232063206 -0.13016274977498 -0.14121671587159
 6  10.23113400640064 -0.49046614491449 -0.82714910931093
 6  10.20869805600560 -1.97865720062006 -1.28590025152515
 6  11.41611272837284 -0.15397628822882 -0.00405020632063
 6  12.79123629262926 -0.32346886278628 -0.61798233803380
 6  14.00092578037804 -0.02499926312631  0.29817703070307
 6  15.36082142614261 -0.19444205590559 -0.43174622492249
 6  15.67817191939194 -1.57044983078308 -0.69562684248425
 6  16.44254750875087  0.43063744984498  0.59453863856386
 6  17.67385308960896  0.55467359315932 -0.21757003690369
 6  18.80104550405041  1.26243809060906  0.82567492919292
 6  20.21560924072407  1.39500524512451  0.26689629322932
 6  20.35261549044904  2.22094774277428 -1.09500532193219
 6  21.20121799589959  1.84011838123812  1.29671637323732
 1 -4.19869012751275  3.33420180188019  1.65981050205020
 1 -10.11717546924693  4.05865344924492 -0.55710001260126
 1 -10.19166842864286 -2.43572362706271 -1.02752630013001
 1 -2.84504319501950 -1.40007967166717  1.88052529112911
 1 -2.18528816681668  1.69507799639964  1.07665203170317
 1 -1.79175289858986  0.89629511851185  3.39571978537854
 1 -3.10720550675068  2.18008746534653  3.60316488398840
 1 -3.43624460566057  0.53008737643764  3.68255213971397
 1 -1.90268279517952 -1.71248716911691 -0.21367635363536
 1 -2.21986618881888 -0.16551446014602 -0.92197729932993
 1 -0.27245433943394  0.77401532503250  0.68307055895590
 1 -0.19691564526453 -1.16419939533953  1.19962283818382
 1 -4.86938910661066  6.48367354245425  0.62383416561656
 1 -6.05221989228923  6.60887068586859  1.56007069626963
 1 -4.90880410921092  5.88274344574458  2.22697637633763
 1 -9.58073557245724  5.84506744284428  0.52765060956096
 1 -8.93837447784778  7.95257384688469  0.12624321762176
 1 -7.09387442404240  7.46937750695070  0.01851738113811
 1 -12.40414582738274  2.94248155345535 -2.24402070047005
 1 -13.35110032353235  2.01127676577658 -1.19380290399040
 1 -12.36405336673667  3.13279636503650 -0.50576207420742
 1 -12.62902543064306 -1.59742214041404 -0.90366057395740
 1 -13.45666166976698 -0.05453926692669 -1.49878723572357
 1 -13.25097556375638 -1.75833707290729 -3.21991498919892
 1 -12.35658583258326 -0.28388711461146 -3.67503507850785
 1 -11.57358070567057 -1.73063600760076 -3.22069118461846
 1 -8.90444134003400 -4.61113396169617 -1.91423900530053
 1 -8.30044374537454 -5.86426653485349 -0.82162639073907
 1 -9.66230839663966 -4.51038782578258 -0.35972422862286
 1 -3.40813094509451 -3.46999858435844 -0.36576322932293
 1 -1.48806989698970 -4.58469684698470  3.22989967696770
 1 -2.81275646304630 -5.72795343774377  3.49287650975097
 1 -1.72817424392439 -6.11884606170617  2.73716041894189
 1  2.57521219231923 -1.72792248214821 -1.69713378967897
 1  2.50576227642764 -0.07864494609461 -2.14507652745275
 1  4.46303552785279 -1.04775278147815  0.33655603180318
 1  4.07314825112511  1.59519061536154 -2.58418176047605
 1  5.72166546494650  2.07115150535054 -2.36876123072307
 1  5.44530985378538  0.51768209840984 -3.22093339263926
 1  6.86268929222922  1.48306453415342 -0.06945944824482
 1  6.48820216821682  0.16599335043504  0.65893690079008
 1  7.60094383648365 -1.27938901060106 -1.16430055875588
 1  7.97621915291529  0.37227410391039 -1.96913706060606
 1  8.95797189438944  0.86976959345935  0.14960892339234
 1  8.80106792959296 -0.85823417881788  0.79913453205321
 1  10.23422513401340  0.30778554485449 -1.64680851145115
 1  9.34627112351235 -1.96995403970397 -2.00648560976098
 1  11.04169725442544 -2.21561807440744 -1.72818900490049
 1  10.00838831243124 -2.60555217781778 -0.47156924762476
 1  10.96738150035003  0.97704211171117  0.37089905330533
 1  11.45182559225923 -0.84615695379538  1.07151462446245
 1  12.74430016571657 -1.53246010741074 -0.89689802470247
 1  12.85437434343434  0.12776225522552 -1.61116948074808
 1  13.90631213441344  0.79626288178818  0.76669332983298
 1  13.82625871617162 -0.72896533383338  1.02109727942794
 1  15.21137352945295  0.38135799619962 -1.46683634313431
 1  15.99014101510151 -2.08682540844084  0.33309571197120
 1  14.84955248704871 -2.04698289188919 -1.30001772217222
 1  16.51990004860486 -1.41059498809881 -1.49658176697670
 1  16.03042825252525  1.34359343204320  0.83937735873587
 1  16.42652435443544  0.01375497979798  1.63352628432843
 1  18.01635082698270 -0.46614357815782 -0.51787779537954
 1  17.80635071627163  1.19200045854585 -1.02086557045705
 1  18.50669935273527  2.29811171077108  0.89585468636864
 1  18.89504578197819  0.80761437273727  1.76646299789979
 1  20.44109417611761  0.37682411821182  0.07383513391339
 1  20.43997083038304  3.42886187108711 -0.96500677017702
 1  21.25853196709671  1.95693157105711 -1.46824807880788
 1  19.53783461666167  1.94135553785379 -2.05580600390039
 1  21.06404641994200  1.11058036183618  2.12428186978698
 1  22.10877551805181  1.74237276847685  0.98819308550855
 1  20.85188772137214  2.87532120832083  1.63281921312131

