%nproc=4
%Mem=2GB
# td=(NStates=1) CAM-B3LYP/6-31G(d,p) 

TD

0 1
12 -7.14754642394239  0.59225746644664  0.11900994959496
 6 -4.86092497359736 -1.96767887918792  0.50684631953195
 6 -4.84063336963696  2.76974130143014  1.31467492469247
 6 -9.38531312011201  3.09035143454345 -0.38781011401140
 6 -9.45031605920592 -1.67462763776378 -0.90887900290029
 7 -5.07166994859486  0.40905216571657  0.68196571697170
 6 -4.35006261156116 -0.67886850725072  0.78199010181018
 6 -2.95336629782978 -0.39480475257526  1.27046248744874
 6 -3.05121541074107  1.00952208470847  1.69510231663166
 6 -4.35328341504150  1.52104248464846  1.15836209740974
 6 -2.95272306330633  1.10907739503950  3.19723324942494
 6 -1.90986526742674 -0.59132314241424  0.11272059785979
 6 -0.49347760176018 -0.38422665406541  0.37168575147515
 6  0.45773515191519 -0.69219265136514 -0.57413906570657
 8  0.26370692039204 -0.98256966076608 -1.76935621592159
 8  1.74215124012401 -0.57650255705571 -0.15886010611061
 7 -7.04288189668967  2.56358776607661  0.33072822962296
 6 -6.05540267126713  3.34087504140414  0.82312029602960
 6 -6.38987697739774  4.68628925932593  0.92710047454745
 6 -7.70313090849085  4.76116600330033  0.43682058905891
 6 -8.15192574577458  3.43610390169017  0.11933227242724
 6 -5.64495027622762  5.89272036333633  1.52230875607561
 6 -8.55793500590059  5.95747081508151  0.19866988888889
 6 -8.18592779057906  7.18080416471647 -0.06821108340834
 7 -9.08387342304230  0.64156063436344 -0.46555826112611
 6 -9.78452011101110  1.80070075267527 -0.66313143734373
 6 -11.12228697159716  1.51892288268827 -1.11069581918192
 6 -11.24904342504250  0.07600147744774 -1.32580184638464
 6 -9.93826371007101 -0.38721720982098 -0.90969027192719
 6 -12.29203744584458  2.47329961086109 -1.26363689458946
 6 -12.40913095879588 -0.74620568276828 -1.69887506470647
 6 -12.55923225522552 -1.02159604480448 -3.31684979037904
 7 -7.21613786588659 -1.32982234383438 -0.17090020872087
 6 -8.19829505180518 -2.20813675317532 -0.50017782368237
 6 -7.79845751325132 -3.56045022792279 -0.60904933393339
 6 -6.51616713871387 -3.57296161166117 -0.16695918801880
 6 -6.12370714891489 -2.19505566006601  0.02831445284528
 6 -8.58007835253525 -4.75372819171917 -0.83756330333033
 6 -5.37521405910591 -4.37620360566057  0.15166366626663
 8 -5.16277763956396 -5.62455510911091  0.12455849064906
 6 -4.23680709070907 -3.44635756985699  0.61673256525653
 6 -3.59049341354135 -3.75931201580158  2.00585176487649
 8 -3.85688934353435 -3.13771700450045  2.98654236953695
 8 -2.63416476437644 -4.65307345984598  1.84703279127913
 6 -2.26987962646265 -5.18418888818882  3.05345668266827
 6  2.80153392999300 -0.65396465416542 -1.15283065796580
 6  4.06180950335034 -0.36917076647665 -0.51093362206221
 6  5.07045065246525  0.37824114861486 -0.99751965216522
 6  4.98300571717172  1.25403994029403 -2.18268535963596
 6  6.38843530113011  0.47824663156316 -0.20911759795980
 6  7.60661840074007 -0.10977285918592 -1.06034570327033
 6  8.92670175257526  0.05081534803480 -0.20618321252125
 6  10.14501539453945 -0.44437153545355 -1.02104849924993
 6  10.11192837903790 -1.90722005690569 -1.49202086358636
 6  11.39388050515052 -0.39666055665567 -0.07194699599960
 6  12.81534870387039 -0.35384190009001 -0.76934747454745
 6  13.99619530733073 -0.11431819501950  0.24226143914391
 6  15.36585192919292 -0.22659527122712 -0.44370742104210
 6  15.69238334053405 -1.72754554035404 -0.72243952375237
 6  16.49719297329733  0.30559494559456  0.44351353605361
 6  17.88908461276128  0.46772489828983 -0.16817509740974
 6  18.83835923542354  1.20050189698970  0.73939630133013
 6  20.30083776357636  1.39078482308231  0.19256886048605
 6  20.43995422432243  2.28398404640464 -1.01358718011801
 6  21.21755963006301  1.92667703710371  1.29071577317732
 1 -4.14009426792679  3.55008339003900  1.72340686168617
 1 -10.20918467016702  3.76391397529753 -0.46571087368737
 1 -10.18600786258626 -2.41738179287929 -1.26377992549255
 1 -2.62921161186119 -1.01660132383238  2.08910614921492
 1 -2.28269790779078  1.73499198779878  1.25497986448645
 1 -1.85234895819582  0.70936642564256  3.57220743414341
 1 -2.97898268446845  2.15742519911991  3.48525309280928
 1 -3.83134411561156  0.55109947764777  3.75399928442844
 1 -1.94565709260926 -1.64792071247125 -0.44252923892389
 1 -2.28953315551555  0.03582567386739 -0.70610571217122
 1 -0.30237733173317  0.71428935243524  0.71598385028503
 1 -0.05141109480948 -1.06358933433343  1.27187006290629
 1 -5.08215038273827  6.45944111921192  0.59279106130613
 1 -6.42393706400640  6.55130492929293  2.16164085328533
 1 -5.10764399319932  5.65422059345935  2.39757343604360
 1 -9.60826832573257  5.59083201930193  0.34853269776978
 1 -8.78382902330233  8.07463605310531 -0.19648905560556
 1 -7.11588662526253  7.48005857505751 -0.24910938153815
 1 -12.02831824462446  3.18356566186619 -2.17429372777278
 1 -13.16541175467547  1.85824146224622 -1.74907843154315
 1 -12.57888484988499  3.05772885828583 -0.32815431343134
 1 -12.35880840894089 -1.71427382558256 -1.03984419231923
 1 -13.36402240584058 -0.33245705870587 -1.13148050505051
 1 -13.26768723492349 -1.81309254845485 -3.52959595729573
 1 -12.61971214521452 -0.03227195309531 -3.82320989598960
 1 -11.56191953955395 -1.55573851785179 -3.52380149564957
 1 -8.99348024392439 -4.79593244154415 -1.88182576397640
 1 -8.00927462846285 -5.77670777897790 -0.80365459355936
 1 -9.40612277807781 -4.83312009900990 -0.01361961816182
 1 -3.50237036903690 -3.31035261976198 -0.18300495349535
 1 -1.57652874287429 -4.41560993829383  3.64840152715271
 1 -3.13354854225423 -5.43911455385539  3.79061628372837
 1 -1.59159058555856 -6.07321149824983  2.90519722262226
 1  2.71521619271927 -1.65654534443444 -1.64219829612961
 1  2.56967866806681  0.12966588498850 -1.94430645044504
 1  4.22014123842384 -0.92690069626963  0.42086446264626
 1  3.98936987328733  1.46101719801980 -2.68358170047005
 1  5.46915021342134  2.27462185238524 -2.07536189078908
 1  5.44610993379338  0.75507583778378 -2.89996129542954
 1  6.58354137743774  1.68054428212821 -0.24702720502050
 1  6.00667401540154 -0.04664791369137  0.71731273837384
 1  7.45881962406241 -1.28505957765777 -0.94678880758076
 1  7.51013254425443  0.09441631813181 -2.20284043094309
 1  9.13094919211921  1.10147276377638 -0.08789482698270
 1  8.56668449124913 -0.37901625702570  0.83598821742174
 1  10.40135184668467  0.31714648094809 -1.70414424502450
 1  9.27525402180218 -2.02857990229023 -2.05329029022902
 1  11.10039312401240 -2.20695720832083 -2.01113729972997
 1  9.81413888748875 -2.49987160976098 -0.51020311101110
 1  11.40189495169517  0.75722012951295  0.35468743214321
 1  11.48094850455045 -1.12139447754775  0.69015648864886
 1  13.02088782448245 -1.47959482088209 -1.38343667856786
 1  12.88858776477648  0.30151963096310 -1.60038840264026
 1  13.76258776197620  0.79941319681968  0.66875353585358
 1  14.04865095539554 -0.74750718801880  1.16870203990399
 1  15.16748914101410  0.33421328172817 -1.49301896139614
 1  15.49275127612761 -2.27258398429843  0.14700710311031
 1  15.04004153595360 -2.23865205880588 -1.56275399579958
 1  16.58303636223622 -2.03833776237624 -1.20381249004901
 1  16.19137434713471  1.33004207690769  0.75452887388739
 1  16.46191789378938 -0.37117351305131  1.30376330803080
 1  18.30466965886589 -0.63846080988099 -0.42348835643564
 1  17.70415049624962  0.90750200870087 -1.16083956785679
 1  18.33326200900090  2.14593649324933  0.92984808570857
 1  18.85259153655365  0.78534214551455  1.76602295389539
 1  20.71753181988199  0.31769820562056 -0.15959820942094
 1  19.84618145144514  3.22910189508951 -0.71324159365937
 1  21.40884699859986  2.43832971087109 -1.26666792079208
 1  19.97676851005100  1.81110251255126 -2.04391481478148
 1  21.04159417471747  1.46438574237424  2.33701314291429
 1  22.25786042654265  1.76152468366837  1.05812007820782
 1  20.91594412701270  3.02878655485549  1.42674860606061

