%nproc=4
%Mem=2GB
# td=(NStates=1) CAM-B3LYP/6-31G(d,p) 

TD

0 1
12 -7.18641031033103  0.57403564426443  0.13307135573557
 6 -4.79923880498050 -1.93826593789379  0.55325095999600
 6 -4.77432673897390  2.88963329062906  1.07895135233523
 6 -9.47600218901890  3.04789718911891 -0.34151548454845
 6 -9.55864689228923 -1.72339251425143 -0.77500561556156
 7 -5.13777655925593  0.51763302380238  0.79361688208821
 6 -4.37415502080208 -0.63091371177118  0.79266116891689
 6 -2.88195915711571 -0.37160243234323  1.17790323152315
 6 -2.91151144034403  1.06486761926193  1.58128093449345
 6 -4.37258534523452  1.53300368076808  1.15382164336434
 6 -2.91928971997200  1.29071555885589  3.17767129322932
 6 -1.84788906980698 -0.61062507260726  0.06220554635464
 6 -0.40830908490849 -0.52993122452245  0.67854643754375
 6  0.48325770417042 -0.78119155125513 -0.60576222802280
 8  0.18129867956796 -1.10873227702770 -1.74736401670167
 8  1.75748277327733 -0.65735064186419 -0.14520874097410
 7 -7.17026463496350  2.64338574587459  0.32893805060506
 6 -6.05820295129513  3.39038999289929  0.79460744474447
 6 -6.44856284598460  4.74279490989099  0.81814957945795
 6 -7.74825542094209  4.85876576327633  0.39250615761576
 6 -8.12775332853285  3.48396868816882  0.15649598879888
 6 -5.54306008720872  5.89585067636764  1.32287881308131
 6 -8.69787900030003  5.92807787578758  0.40432045394539
 6 -8.20841003880388  7.19648573287329  0.03035877357736
 7 -9.12595763146315  0.63089956825683 -0.32614431973197
 6 -9.86386804580458  1.75362604520452 -0.60210533473347
 6 -11.18824356725673  1.47698868926893 -1.07123187278728
 6 -11.27656617731773  0.06216009330933 -1.19161842804280
 6 -9.92876275997600 -0.39298778687869 -0.79177848074807
 6 -12.21088933103310  2.48672095299530 -1.49021955285529
 6 -12.37215726142614 -0.82402346454645 -1.72825800300030
 6 -12.15367169916992 -1.01463534873487 -3.20184829022902
 7 -7.27730398249825 -1.37959732133213 -0.15966908560856
 6 -8.24663988628863 -2.22669860936094 -0.44491229712971
 6 -7.74680234773477 -3.56841102400240 -0.45288371737174
 6 -6.46029155115512 -3.53680799629963  0.01568907680768
 6 -6.14566934513451 -2.18043419791979  0.21499312071207
 6 -8.59980032473247 -4.76849966886689 -0.77264681168117
 6 -5.31426796449645 -4.23483946924693  0.14787328722872
 8 -5.23599496129613 -5.51429408300830  0.08256429122912
 6 -4.13057646764676 -3.26662959705971  0.49792068406841
 6 -3.42968733293329 -3.65886197079708  1.84001518121812
 8 -3.75059871447145 -3.13170640344034  2.89197291259126
 8 -2.63500484838484 -4.68233638613861  1.61768985698570
 6 -2.02496513501350 -5.19724019331933  2.80325166216622
 6  2.78940271687169 -0.72907216491649 -1.10338571347135
 6  4.11668499089909 -0.45737958735874 -0.51336386508651
 6  5.04877848524852  0.39920324482448 -0.97637753795380
 6  4.84461187778778  1.27061159745975 -2.21497858895890
 6  6.32279873747375  0.53958276517652 -0.27783446964696
 6  7.50703844274427 -0.14001588348835 -1.09245891459146
 6  8.93002208460846  0.01595186168617 -0.34249684388439
 6  10.20886177917792 -0.57243434173417 -1.09032542694269
 6  10.03386057225723 -2.04675401030103 -1.39774143564356
 6  11.45091620872087 -0.42085297589759 -0.14504430573057
 6  12.88380554955496 -0.59578609450945 -0.79217975777578
 6  13.98030371817182 -0.32701946514651  0.18274548754875
 6  15.41983732773277 -0.23572618431843 -0.45962901320132
 6  15.87429153135314 -1.63922670847085 -1.07128440824082
 6  16.37228048204820  0.33810819691969  0.52191137583758
 6  17.75938164246425  0.54667279307931 -0.05048332823282
 6  18.73872927242724  1.21964381118112  0.98176053775378
 6  20.12379005880588  1.41489723432343  0.32977258085809
 6  20.20332056095609  2.26447209520952 -0.91413723512351
 6  21.15561343544355  2.04795916531653  1.36266296789679
 1 -4.09279953845384  3.64251263296330  1.45433995499550
 1 -10.14798855055506  3.85408299219922 -0.51396569916992
 1 -10.08895815761576 -2.47891794649465 -1.04531807930793
 1 -2.69016770747075 -1.03981364506451  1.91080831943194
 1 -2.12620225822582  1.58908739733973  1.05170953745374
 1 -2.09335305860586  1.02222771177118  3.59174938833883
 1 -3.18271305750575  2.27444690129013  3.31977654515452
 1 -3.90900188138814  0.85874024172417  3.81296518101810
 1 -2.06343887078708 -1.68689460986099 -0.31117610361036
 1 -1.95742994519452 -0.12223013171317 -0.90736583818382
 1 -0.18293538753875  0.41986991049105  0.96282853475348
 1 -0.36989294299430 -1.17298027342734  1.50185306120612
 1 -4.96858902660266  6.45017019211921  0.36534831703170
 1 -6.28278294859486  6.55190498929893  1.89722441164116
 1 -4.87191041984198  5.57217238863886  1.97919159785979
 1 -9.67440493939394  5.64185712181218  0.47653549804981
 1 -8.88629927032703  7.90209879937994  0.12747334063406
 1 -7.24359939653965  7.34733530273027 -0.44530900150015
 1 -11.79204461726173  2.94325163046305 -2.48902520092009
 1 -13.24005921942194  1.95446108420842 -1.76366989068907
 1 -12.33664062546255  3.12506559195920 -0.60602210021002
 1 -12.49275180328033 -1.72871526972697 -1.37134734263426
 1 -13.34167017061706 -0.27732154515452 -1.38907626462646
 1 -12.88881934813481 -1.76320755995600 -3.55554855255525
 1 -12.37433760776078 -0.08707743364336 -3.82002957795780
 1 -11.26004935253525 -1.40046299029903 -3.31578069356936
 1 -8.73116401230123 -4.84452730103010 -1.89150673207321
 1 -7.87739144014401 -5.61593170137014 -0.43035726382638
 1 -9.47521968776878 -4.77404419141914 -0.12180043624362
 1 -3.21294142614261 -3.29387097159716 -0.18509516251625
 1 -1.65678676867687 -4.28376675397540  3.46693338033803
 1 -2.98898408580858 -5.82672331473147  3.31128835093509
 1 -1.41681310781078 -5.82155633273327  2.55376207910791
 1  2.79103377447745 -1.70450013991399 -1.64354843114311
 1  2.58899059925993  0.00735365376538 -1.87622964276428
 1  4.27572679697970 -0.86338434463446  0.31410378657866
 1  3.81014195049505  1.27825892219222 -2.72914625692569
 1  5.27533083148315  2.18367275747575 -1.82471682628263
 1  5.46668199099910  0.70897122732273 -2.98619991929193
 1  6.84318734203420  1.42832906060606  0.00862836053605
 1  6.32344569256926 -0.01972522142214  0.76811781888189
 1  7.43669741184118 -1.20246131783178 -1.26210033873387
 1  7.53180471147115  0.50319719621962 -1.96147629452945
 1  9.11950804800480  0.96536915341534 -0.03238927642764
 1  8.89410723352335 -0.64726308170817  0.61682630123012
 1  10.38395010651065 -0.12592782648265 -2.00219405000500
 1  9.15808230463046 -2.12128917321732 -2.16144110531053
 1  10.98095117981798 -2.54967147974797 -1.82985917191719
 1  9.59799727332733 -2.74969659225923 -0.46368845954595
 1  11.25369013121312  0.54563897139714  0.36400836423642
 1  11.36223663336334 -1.03199553765377  0.59244671767177
 1  12.85504123982398 -1.54184104550455 -1.45946428132813
 1  12.93845275127513  0.18113759275928 -1.65034339813981
 1  13.86200770397040  0.56599985548555  0.71399806030603
 1  13.95671176147615 -0.89478191549155  0.99286445614561
 1  15.17400979307931  0.37100696109611 -1.43985364486449
 1  15.75525752675268 -2.52644937083708 -0.38911650925093
 1  15.20225775757576 -2.00211840544054 -1.94513223362336
 1  16.88891695029503 -1.50325425402540 -1.34886699549955
 1  15.88522373207321  1.27158623132313  0.92139556055606
 1  16.43500520252026 -0.30973736943694  1.25859879157916
 1  18.01579077097710 -0.42250921472147 -0.55947195479548
 1  17.38939902110211  1.35620687918792 -1.04803828772877
 1  18.29821850465046  2.07253915351535  1.27139224012401
 1  18.84418069546955  0.84959857115712  2.00481683328333
 1  20.43151321802180  0.43209964576458  0.35537328772877
 1  19.82925975927593  3.34907389228923 -0.66749701920192
 1  21.21890800470047  2.39248512641264 -1.20806206020602
 1  19.74624545774577  1.76774817711771 -1.78172859615962
 1  21.23064307960796  1.65547485128513  2.47239668126813
 1  22.20845548604861  2.22911144234423  0.90274454065407
 1  20.99124165676568  2.93161683788379  1.56896282748275

