%nproc=4
%Mem=2GB
# td=(NStates=1) CAM-B3LYP/6-31G(d,p) 

TD

0 1
12 -7.13797546684668  0.57394563526353  0.13295134373437
 6 -4.90459934103410 -1.95221733303330  0.58451408630863
 6 -4.79385869216922  2.76670099739974  1.34782824002400
 6 -9.29019360816081  3.14602700210021 -0.45594692769277
 6 -9.38592962056206 -1.67059723472347 -0.95275339033903
 7 -5.14071685328533  0.41449270977098  0.81524904530453
 6 -4.34379198449845 -0.83084370477048  0.86395829862986
 6 -2.94527548874887 -0.54616988908891  1.28263370457046
 6 -3.00715100430043  1.08845997849785  1.83186599299930
 6 -4.40465855255526  1.43379375977598  1.31180744194419
 6 -2.79378716971697  1.29503599089909  3.25126865296530
 6 -1.97977225812581 -0.60470448054805  0.17086641244124
 6 -0.48210646464646 -0.52693092449245  0.69624820772077
 6  0.52462184058406 -0.64264769686969 -0.49562121392139
 8  0.12512306200620 -0.93623502730273 -1.63664294459446
 8  1.81410843584358 -0.45873077987799 -0.12157637773777
 7 -7.03749135763576  2.57597900520052  0.45008016481648
 6 -6.02265939693969  3.20851180508051  0.95887387138714
 6 -6.37919590929093  4.74060469086909  0.91497926242624
 6 -7.70285088048805  4.86693658035804  0.42893980098010
 6 -8.07181773497350  3.49554984628463  0.06686702590259
 6 -5.45837161836184  5.82823391469147  1.40870739593959
 6 -8.47188640104011  6.03192826082608  0.27197721962196
 6 -8.04672387018702  7.32426851115112  0.04158989668967
 7 -9.06406144184418  0.67393387168717 -0.67094880018002
 6 -9.81573323232323  1.77899858245825 -0.70411553575358
 6 -11.19366410931093  1.51625261566157 -1.21629637923792
 6 -11.22320084078408  0.13753763106311 -1.35993525972597
 6 -9.92842272597260 -0.41636012411241 -0.86948625152515
 6 -12.32205044714471  2.40029231013101 -1.47286781768177
 6 -12.35103514921492 -0.74179524172417 -1.76620179737974
 6 -12.18463479547955 -1.10526441164116 -3.22606071147115
 7 -7.21343759585959 -1.40410977257726 -0.13880699939994
 6 -8.21752697499750 -2.21865780528053 -0.56401420732073
 6 -7.85644331183118 -3.56369055195520 -0.61446987598760
 6 -6.48168369036904 -3.56549086458646 -0.14949744184418
 6 -6.19946472467247 -2.13340949544954  0.07335895729573
 6 -8.67872821752175 -4.86313913281328 -0.78509805680568
 6 -5.34362089978998 -4.35056104140414  0.15206370627063
 8 -5.03182454425442 -5.51926458005801  0.07146318111811
 6 -4.17643105310531 -3.28959189328933  0.57379827182718
 6 -3.56155051925193 -3.71670775537554  1.90979215891589
 8 -3.87245089968997 -3.16397963076308  3.04121783708371
 8 -2.83202455035504 -4.77616576907691  1.84572266026603
 6 -2.24726736523652 -5.32180264956496  3.01830316731673
 6  2.77118089468947 -0.79427868556856 -1.30290566546655
 6  4.12426574897490 -0.61553540294029 -0.78060058875888
 6  5.05704931233123  0.23489681418142 -1.14638453865387
 6  4.86329374597460  1.24595913221322 -2.27056414751475
 6  6.35213167076708  0.39713852075208 -0.44956164236424
 6  7.64110184908491 -0.09719160106011 -1.11409107780778
 6  8.88908799119912  0.00266053255326 -0.27267986218622
 6  10.19583047604760 -0.44905200350035 -0.98851524592459
 6  9.99845703190319 -1.97862719761976 -1.39072073357336
 6  11.39081019811981 -0.17450834143414 -0.08770857215722
 6  12.69981715071507 -0.37076359225923 -0.63419395919592
 6  13.94998068586859  0.11493473027303  0.27309452245225
 6  15.32168751275128 -0.05514812651265 -0.40929397969797
 6  15.54422852505250 -1.43205599139914 -0.81396867666767
 6  16.50625387938794  0.45572995909591  0.45373455815582
 6  17.73298900320032  0.63892201800180 -0.18596687658766
 6  18.77165256475648  1.32514436123612  0.75438780048005
 6  20.26294397419742  1.21069681428143  0.22363196679668
 6  20.48183841274127  2.09312496049605 -1.10381620302030
 6  21.08913678777878  1.71429579897990  1.32130883248325
 1 -3.96075633413341  3.52488086978698  1.46704122512251
 1 -9.83607735943594  3.85602318621862 -0.76271057365737
 1 -10.07745700750075 -2.47636769146915 -1.34541808930893
 1 -2.48826751745174 -1.20664032773277  2.04273151175117
 1 -2.25519515751575  1.70437892649265  1.28394276077608
 1 -1.78940266356636  0.84580006900690  3.78563877727773
 1 -2.71888667486749  2.40838029462946  3.52803737123712
 1 -3.76581756295630  0.79569393709371  3.84323820832083
 1 -2.22115464236424 -1.58506442684268 -0.12879786578658
 1 -2.11435563776378  0.13357544884489 -0.60601570317032
 1 -0.43429052305230  0.44379230273027  1.20319257115712
 1 -0.43515946964696 -1.43519649504951  1.38157103300330
 1 -5.00453262096210  6.43174834993499  0.54234601680168
 1 -6.04852952325232  6.54381418021802  2.01828651785178
 1 -4.52658588738874  5.70658582998300  2.15278895759576
 1 -9.64394189308931  5.92106504260426  0.12534037853785
 1 -8.65200584098410  8.10136872637264 -0.10627003370337
 1 -7.05329036563656  7.62062263146315 -0.16940141074107
 1 -12.16730214301430  3.01687899319932 -2.41965826422642
 1 -13.30095530903090  1.86472211031103 -1.56370989468947
 1 -12.28078503990399  3.20312339773977 -0.66772827082708
 1 -12.35380790889089 -1.58147054525453 -1.16708691659166
 1 -13.41066707030703 -0.34670848384839 -1.57758511551155
 1 -12.89684015021502 -1.82566380558056 -3.40012301000100
 1 -11.98598877287729 -0.34230295619562 -3.86579415441544
 1 -11.29191253885389 -1.63620656465647 -3.31419053455346
 1 -9.55958685458546 -5.01825467376738 -1.69474705610561
 1 -8.05851955295530 -5.81651175937594 -0.97807203530353
 1 -9.32496466226623 -5.10662744974497  0.02958470227023
 1 -3.57820795279528 -3.20911249574957 -0.25329198219822
 1 -1.43882497249725 -4.61028940624062  3.56732341934193
 1 -3.12192738013801 -5.20560120252025  3.64009123122312
 1 -1.77577900440044 -6.28501267836784  2.71880858375838
 1  2.41001567266727 -1.82013170307031 -1.60107418371837
 1  2.35704740494049 -0.01394847644764 -1.91799381918192
 1  4.40502972727273 -1.16770477667767  0.03483585978598
 1  3.89295023132313  1.26734783108311 -2.90971431373137
 1  5.09513281168117  2.35632002220222 -1.77431178577858
 1  5.76504182698270  1.16067639783978 -3.02810410971097
 1  6.47392041534153  1.39057528522852 -0.21689419171917
 1  6.30652400040004 -0.23208645754575  0.35845685278528
 1  7.41110485258526 -1.22033310501050 -1.29323345204520
 1  8.12144367536754  0.35709258575858 -2.23211335823582
 1  8.94298039523952  0.97986060256026 -0.05664170167017
 1  8.91481930473047 -0.49164752015202  0.58746336493649
 1  10.10782249374938  0.06432119841984 -1.94593842444244
 1  9.12241873827383 -2.37336438073807 -1.91031599279928
 1  10.88924200890089 -2.36544305690569 -1.99468565456546
 1  9.85006247984799 -2.49399102170217 -0.40580267096710
 1  11.19907466966697  0.77048145564556  0.51135309870987
 1  11.14071448114811 -1.01560389848985  0.81690916391639
 1  12.95498123382338 -1.49302616401640 -0.68632696759676
 1  12.65411431743174 -0.01402192319232 -1.74570293409341
 1  13.85046654985499  1.11780503600360  0.72471913241324
 1  13.86978306860686 -0.74243668096810  1.25929109880988
 1  15.33838623072307  0.46110597099710 -1.29122878237824
 1  15.77581958295830 -2.03916064196420  0.14467687008701
 1  14.78614614641464 -2.01369956355635 -1.22942066246625
 1  16.54244230283028 -1.41786571517152 -1.68795090389039
 1  16.09656486618662  1.43237230993099  0.98158157915792
 1  16.44911661366137 -0.20832722842284  1.25916884858486
 1  18.09491868376838 -0.34071103490349 -0.46687269486949
 1  17.67462754395440  1.26103736223622 -1.08899238313831
 1  18.40657934073407  2.25831773137314  0.74351945284529
 1  18.77962423982398  0.95023863516352  1.57265361696170
 1  20.66135620232023  0.11915835163516  0.01343909430943
 1  20.13368020132013  2.97715670057006 -0.87620789028903
 1  21.50019613351335  2.28293417131713 -1.51788304230423
 1  19.81669250245024  1.55578698099810 -1.82567299059906
 1  20.89889990529053  1.09519882368237  2.21030047164716
 1  22.14138877937794  1.78078660986099  1.00544481068107
 1  20.68094062666267  2.71457513371337  1.74681061226123

