%nproc=4
%Mem=2GB
# td=(NStates=1) CAM-B3LYP/6-31G(d,p) 

TD

0 1
12 -7.16845851515151  0.51942018271827  0.05050309890989
 6 -4.87125600670067 -1.99863197449745  0.52591822672267
 6 -4.84398370467047  2.75681000830083  1.21192464966497
 6 -9.35623021182118  3.04756715611561 -0.31807314031403
 6 -9.52183321092109 -1.84615479047905 -0.81272938793879
 7 -5.10827360896090  0.39130039053905  0.73951147154715
 6 -4.29590719601960 -0.64157477787779  0.77002890569057
 6 -2.92317327852785 -0.32898817091709  1.22701814301430
 6 -2.91785207440744  1.09968110061006  1.68489129552955
 6 -4.29650773747375  1.51312169256926  1.15025128632863
 6 -2.93664145514551  1.26453294059406  3.28626215231523
 6 -1.95387966886689 -0.55177918801880  0.12865219101910
 6 -0.52324057805781 -0.36001423282328  0.53254183708371
 6  0.52373175157516 -0.65208864096410 -0.53900555235524
 8  0.20586113581358 -0.96239764356436 -1.62267154745475
 8  1.78174519951995 -0.37887279407941 -0.15536975707571
 7 -7.09805741424142  2.61125253255326  0.35282043884388
 6 -6.05927305830583  3.31591254515452  0.79802778677868
 6 -6.37863585328533  4.69208983938394  0.88709647414741
 6 -7.76211680708071  4.86326621332133  0.41788869586959
 6 -8.14862541574157  3.47176746804680  0.17231757095710
 6 -5.49875565676568  5.83999509080908  1.36691321652165
 6 -8.64423363576358  5.99431449944994  0.34264428632863
 6 -8.04859405720572  7.26636272057206  0.15777151485149
 7 -9.13881891759176  0.60734721302130 -0.52972467776778
 6 -9.85348700770077  1.73572425502550 -0.74439956415642
 6 -11.20082482538254  1.37118810921092 -1.29501425102510
 6 -11.26086460716072 -0.00726684938494 -1.38209747594759
 6 -9.89842972667267 -0.46865535363536 -0.86961626452645
 6 -12.18989723182318  2.42356463736374 -1.48858938983898
 6 -12.38590863656366 -0.76266732893289 -1.86292146934693
 6 -12.17587391939194 -1.15665955115512 -3.36577468286829
 7 -7.22056830893089 -1.43172253385339  0.00990787208721
 6 -8.23947917021702 -2.29732567206721 -0.44833263916392
 6 -7.79342701020102 -3.65304948784878 -0.41648007700770
 6 -6.52267778977898 -3.61047536303630  0.05317282518252
 6 -6.12899767796780 -2.19832598709871  0.07602922432243
 6 -8.67392773747375 -4.77523034193419 -0.85031457845785
 6 -5.32221875957596 -4.32577856315632  0.18955745564556
 8 -5.14630599239924 -5.55559821342134  0.12481851665167
 6 -4.17595100510051 -3.33006594069407  0.59411030303030
 6 -3.55769013321332 -3.66484256885689  1.94642582228223
 8 -3.72900655525553 -3.14999823262326  3.06061977727773
 8 -2.70515186308631 -4.75255340784078  1.81046913491349
 6 -2.05943858235824 -5.26685715501550  2.99326066306631
 6  2.67531130773077 -0.48779803750375 -1.15769114401440
 6  4.09676299869987 -0.26611046044604 -0.52144467316732
 6  5.13010661806181  0.49184250875087 -0.93036293649365
 6  5.06495391199120  1.42398693499350 -2.19628671977198
 6  6.45311176877688  0.47457626452645 -0.15282196839684
 6  7.55179291819182 -0.09234111601160 -1.02360202890289
 6  8.90201928432843 -0.02195192869287 -0.11883447764776
 6  10.11841273427343 -0.50403750205021 -0.99524591899190
 6  10.10306749294929 -1.90637997289729 -1.52684434593459
 6  11.27479859695970 -0.18329922052205 -0.08527832913291
 6  12.72968013701370 -0.36708322422242 -0.83881442124212
 6  13.83573926172617 -0.00505726892689  0.06242345534553
 6  15.32546789078908 -0.15640825252525 -0.58260131043104
 6  15.70621472367237 -1.64019680548055 -1.01113839363936
 6  16.35507876187619  0.36356074217422  0.39171835653565
 6  17.73406911121112  0.56196432223222 -0.19329760966097
 6  18.83728912841284  1.11493334013401  0.88825118681868
 6  20.16993467326733  1.15992173677368  0.35671527512751
 6  20.30511073997399  1.99167481548155 -1.05110093149315
 6  21.24522239633963  1.70673504290429  1.31813851545155
 1 -4.12169242774277  3.37503588528853  1.39800432143214
 1 -10.02176592829283  3.77858544244424 -0.60917522012201
 1 -10.39446870867087 -2.50061011571157 -1.12798634613461
 1 -2.64268295899590 -1.01970163386339  2.20049728832883
 1 -2.16418605660566  1.77154564316432  1.25327969446945
 1 -1.97919164246425  1.03682917191719  3.69504971837184
 1 -2.94986977317732  2.29850930753075  3.40109467696770
 1 -3.76771775297530  0.59463383108311  3.85030891539154
 1 -2.03107563446345 -1.57583350375038 -0.35974096009601
 1 -2.29346354855486  0.28947103840384 -0.71254635623562
 1 -0.36607370137014  0.75686360986099  0.88358060996100
 1 -0.32646860056006 -0.94397737313731  1.33009588548855
 1 -4.52106427412741  6.23234840994099  0.75305708790879
 1 -6.06251092139214  6.75506530533053  1.46532122132213
 1 -5.04499772857286  5.52245741714171  2.18755243394339
 1 -9.65807330623062  6.02475541164116  0.35372321682168
 1 -8.72787342774277  8.09872846234623 -0.07780718741874
 1 -6.94632966956696  7.41348191739174 -0.04242871347135
 1 -11.81730714351435  3.15480278557856 -2.25887218561856
 1 -13.27263247674767  2.02037767586759 -2.16435995969597
 1 -12.46713367476748  2.94565765116512 -0.40974247224722
 1 -12.53065559365937 -1.53054545274527 -1.28614882278228
 1 -13.45340134373437 -0.26293010601060 -1.94613197019702
 1 -13.16727719391939 -1.77491873107311 -3.70164316201620
 1 -12.21683185718572 -0.21036976287629 -3.80883845884588
 1 -11.28155150275028 -1.74793773777378 -3.81508062356236
 1 -9.36279717561756 -4.36400924922492 -1.71815939733973
 1 -7.99032273327333 -5.66672678087809 -1.35334956305631
 1 -9.41428359415941 -5.24818160516052 -0.17195545174518
 1 -3.29754988698870 -3.52636422092209  0.06725007200720
 1 -1.57387847784778 -4.48234661196120  3.61634832183218
 1 -2.91909709710971 -5.74816545894589  3.56810403250325
 1 -1.56990841734173 -6.08818299539954  2.82545924882488
 1  2.65046971807181 -1.49860955085509 -1.41785586188619
 1  2.33597529772977  0.21084400280028 -2.05106712651265
 1  4.34791401570157 -0.75962396859686  0.40796317251725
 1  3.94522545884588  1.41003209950995 -2.65425876817682
 1  5.21933523192319  2.45205959615962 -2.08303265786579
 1  5.67437276007601  1.19592992319232 -3.13306460576058
 1  6.83630665396540  1.58859508720872  0.15168266596660
 1  6.27230057805781 -0.04500774967497  0.81005201230123
 1  7.49633337543754 -1.10001107280728 -1.39836396509651
 1  7.82895442644264  0.27947482398240 -1.99669981688169
 1  8.92412851005100  0.94731734823482  0.31653561606161
 1  8.73864168696870 -0.70701905730573  0.64193881248125
 1  10.11887359885989  0.14774954125412 -1.96594042464246
 1  9.11361785818582 -1.91766881118112 -2.09253421462146
 1  11.03478656335634 -2.17117362996300 -1.96149233523352
 1  9.93824129772977 -2.62324394699470 -0.70907299799980
 1  11.11124588678868  0.80254466196620  0.36726869026903
 1  11.20425083478348 -0.85610794889489  0.77821529452945
 1  13.08264400010001 -1.35630249164917 -1.00900923582358
 1  12.72925183118312 -0.02721324232423 -1.89762812661266
 1  13.70764226742674  0.96915017051705  0.56130279077908
 1  13.65473156345635 -0.69905234253425  0.85211038073807
 1  15.34544693679368  0.38608846924692 -1.48902856235624
 1  16.03058505950595 -2.21277800370037 -0.05580317791779
 1  14.72780031183118 -2.24121231483148 -1.40168788918892
 1  16.47562562116212 -1.75501943054305 -1.73495560436044
 1  16.35462067176718  1.36003507620762  0.91662508350835
 1  16.51209291129113 -0.26922331803180  1.15866879857986
 1  17.90171936383638 -0.38083504730473 -0.53001900950095
 1  17.71230131133114  1.20419167766777 -0.99608309220922
 1  18.43827251005100  2.19541144074407  1.18692379327933
 1  18.74484076147615  0.57322093339334  1.84105045664566
 1  20.46280634733473 -0.03943750795079  0.21956970737074
 1  20.13801063436344  2.96796578147815 -0.54921519101910
 1  21.35225133903391  1.84790066796680 -1.46358761276128
 1  19.43578441164116  1.59491089338934 -1.61155157845785
 1  21.25934594989499  1.01636093989399  2.32313175477548
 1  22.32413705420542  1.83781231243124  0.73056732293229
 1  21.16440897349735  2.71077475367537  1.68220415161516

