%nproc=4
%Mem=2GB
# td=(NStates=1) CAM-B3LYP/6-31G(d,p) 

TD

0 1
12 -7.13286495579558  0.66394463516352  0.11280932953295
 6 -4.80195907700770 -1.96218833013301  0.35175080998100
 6 -4.85235454175418  2.78015234253425  1.13195665286529
 6 -9.35870045884588  3.04031643104310 -0.33095442844284
 6 -9.50270129772977 -1.71404157915792 -0.92051016601660
 7 -5.11931471307131  0.32954421492149  0.73776129652965
 6 -4.27031463676368 -0.72667328772877  0.76730863366337
 6 -2.88236919811981 -0.35171044314431  1.19613505470547
 6 -2.96967725692569  1.08795992849285  1.60036284268427
 6 -4.40757884458446  1.45889627002700  1.20732699389939
 6 -2.91846963796380  1.15537202450245  3.20191371747175
 6 -1.93854813571357 -0.60863487358736  0.04106343214321
 6 -0.47259551355136 -0.37313554495450  0.55548413131313
 6  0.49478885728573 -0.64797822992299 -0.59009066086609
 8  0.28360891059106 -0.93973537733773 -1.76830611091109
 8  1.75957298229823 -0.48404331113111 -0.10790501060106
 7 -7.18985659415942  2.63734514181418  0.35297045384538
 6 -6.08906603760376  3.37656861076108  0.83168115211521
 6 -6.52297028672867  4.71278190859086  0.86489425392539
 6 -7.75837643304330  4.76744663136314  0.50716762376238
 6 -8.19964051725172  3.39685997729773  0.15972631183118
 6 -5.60409619081908  5.84786587788779  1.24956148134814
 6 -8.66311552395240  5.86208127612761  0.41876189808981
 6 -8.46209540734073  7.09184526882688  0.09137487518752
 7 -9.12113714941494  0.69525600390039 -0.75012671797180
 6 -9.93187484648465  1.76592727532753 -0.67504262846285
 6 -11.22261700460046  1.36226721712171 -1.10128487808781
 6 -11.31648016871687  0.03260713801380 -1.21023028922892
 6 -9.90723060676068 -0.39404789288929 -0.91737104000400
 6 -12.39853809590959  2.49483176407641 -1.31558208910891
 6 -12.44251429712971 -0.79037009920992 -1.78483366056606
 6 -12.42643897589759 -0.87803168836884 -3.33454155955596
 7 -7.17622387448745 -1.31287064866487 -0.12991611031103
 6 -8.23574879717972 -2.26824276377638 -0.57890569646965
 6 -7.83283095059506 -3.60244442734273 -0.44651308030803
 6 -6.45200072207221 -3.47062137763776 -0.13728622072207
 6 -6.15690046824682 -2.18721487598760 -0.01501988058806
 6 -8.55185553025303 -4.88038085698570 -0.83594314131413
 6 -5.31368790649065 -4.38081406670667  0.17759625952595
 8 -5.23023438523852 -5.60187284088409  0.20874690949095
 6 -4.20635404540454 -3.29626256035604  0.50027091909191
 6 -3.55514987918792 -3.69575566016602  1.85306648634864
 8 -3.75720937553755 -3.12100533333333  2.91433514881488
 8 -2.73601494939494 -4.70058821132113  1.70063815181518
 6 -2.22350498899890 -5.19296976627663  2.99464080108011
 6  2.82946672327233 -0.67941719941994 -1.02805818071807
 6  4.07478080048005 -0.31279512891289 -0.28014054275428
 6  5.03367697509751  0.51187451195119 -0.77917781798180
 6  5.07543496009601  1.33722825912591 -2.06182327342734
 6  6.44515097269727  0.51336014291429 -0.04191087728773
 6  7.55798353725373 -0.06708859075908 -0.96230589928993
 6  8.95828491089109 -0.01366109960996 -0.12790538473847
 6  10.22354324732473 -0.57203430173017 -0.79542593699370
 6  10.10245743194320 -2.03785312021202 -1.16947860936094
 6  11.50404152125212 -0.24789568016802  0.02000219891989
 6  12.83188035703570 -0.58339485538554 -0.74788532833283
 6  13.88903459125913 -0.03118988218822  0.12407962096210
 6  15.31721706570657 -0.12759537123712 -0.38514156445645
 6  15.69892399459946 -1.55280806660666 -0.81818909870987
 6  16.45601885588559  0.43288767486749  0.45974515921592
 6  17.75892159645965  0.61356948274827 -0.18223650355035
 6  18.83421882138214  1.26050789758976  0.59467182888289
 6  20.34113179297930  1.13851959655966  0.09481908550855
 6  20.46957718661866  1.99445509350935 -1.21186700810081
 6  21.38574644874488  1.72110648004800  1.12207890949095
 1 -4.06979723822382  3.49990837253725  1.36546106710671
 1 -10.13345709740974  3.91869945384538 -0.55879018161816
 1 -10.13736299809981 -2.72448250295029 -1.15908945644564
 1 -2.70965965666567 -0.95387505120512  2.08115535413541
 1 -2.18269790779078  1.68694718331833  0.97584195069507
 1 -1.96287001030103  0.47959344834483  3.53367358075808
 1 -2.96152093829383  2.09005846244624  3.59690425792579
 1 -3.79911089228923  0.48503287098710  3.51206509100910
 1 -2.01991451835184 -1.67322324272427 -0.22409739573957
 1 -2.14437864006401  0.07143923522352 -0.69401450305031
 1 -0.18614570857086  0.52379030253025  0.85162741464146
 1 -0.32989894359436 -0.96103907930793  1.42056493239324
 1 -5.20308247594760  6.32339751485149  0.29560134233423
 1 -6.23208787908791  6.69662946174617  1.86162085128513
 1 -4.66131936073607  5.46702187358736  1.80924460316032
 1 -9.70757825672567  5.61235417151715  0.41546939143914
 1 -9.50566120652065  7.74895348484848  0.01661225452545
 1 -7.49587462406241  7.73911448064807 -0.07757222782278
 1 -11.94758017081708  3.29321662696270 -2.02722902130213
 1 -13.34826003950395  2.11657729582958 -1.70392391609161
 1 -12.39985694709471  3.04433751915191 -0.46760825882588
 1 -12.36058858695869 -1.91405380358036 -1.28528873677368
 1 -13.33851985558556 -0.40773458645865 -1.37519487648765
 1 -13.11834230043004 -1.59572081128113 -3.59239223692369
 1 -12.50222039603961  0.02725399949995 -3.87018459345935
 1 -11.51366471407141 -1.36495943994399 -3.74873398889889
 1 -8.84657555345535 -4.83145599389939 -1.89002658405841
 1 -8.04778847984799 -5.66858696689669 -0.66535076317632
 1 -9.57177934373437 -5.19672645964596 -0.37486574277428
 1 -3.42357248924893 -3.53527511201120 -0.25623227622762
 1 -1.85561665166517 -4.47854623192319  3.67743443044304
 1 -2.93995918331833 -5.73562420482048  3.69708693079308
 1 -1.40076150265027 -6.03173735083508  2.62052875577558
 1  2.68881355245524 -1.77432712261226 -1.37389146544654
 1  2.38821052125213 -0.18625570717072 -1.94857687748775
 1  4.39885911021102 -0.76901490769077  0.67058943514351
 1  4.09157009330933  1.19807090339034 -2.65570891319132
 1  5.39246254465447  2.49332372257226 -1.96125047964796
 1  5.79608493129313  0.79304963516352 -2.90109140844084
 1  6.57402042534253  1.70174640234023  0.14624212191219
 1  6.49058240624062 -0.05123837273727  1.04556556365637
 1  7.09072281438144 -1.00846191789179 -1.10023415211521
 1  7.84815634663466  0.30948782528253 -1.98422856975698
 1  9.28038413561356  1.03513613011301  0.02828679117912
 1  8.80305812861286 -0.44899325472547  0.88768338693869
 1  10.38574028552855 -0.21191642534253 -1.76296012661266
 1  9.23167966436644 -2.33271031533153 -1.71656661786179
 1  11.07157024172417 -2.34063057565757 -1.81795798179818
 1  10.05921339493949 -2.67816943954395 -0.31611370207021
 1  11.45469023122312  0.76411081858186  0.47347931133113
 1  11.50564097379738 -0.83712605070507  1.07720519351935
 1  12.85071080678068 -1.66165302670267 -0.82272060696070
 1  12.96881578757876 -0.03798431943194 -1.72604096789679
 1  13.68453995719572  1.06606986248625  0.28077473797380
 1  13.76760285058506 -0.69906234353435  1.15905107480748
 1  15.33638603070307  0.46882674307431 -1.31774143364336
 1  15.60043204420442 -2.20958768466847 -0.06635423302330
 1  14.89303683548355 -1.80704889848985 -1.59703742414241
 1  16.81413947254726 -1.61846577517752 -1.17806991579158
 1  16.22252746244624  1.41374044674468  0.78321174217422
 1  16.73856555855586 -0.01164756045605  1.34418735043504
 1  18.16642583448345 -0.31309827362736 -0.80139614721472
 1  17.63589367056706  1.24919617811781 -1.26859034293429
 1  18.60294897769777  2.37206910651065  0.80940604150415
 1  19.05152142954295  0.79951356265626  1.75615196679668
 1  20.73407347404740  0.07208364416442  0.00769852025203
 1  20.49503633693369  3.05424440934093 -0.70489075857586
 1  21.55348146204620  1.79862574047405 -1.65215646964696
 1  19.80834166736674  1.67284868716872 -2.00888131143114
 1  21.67380739603960  1.07941724552455  1.90039948154815
 1  22.45829046954696  1.95863439463946  0.42449671587159
 1  20.99303183578358  2.62258593479348  1.38160409160916

