%nproc=4
%Mem=2GB
# td=(NStates=1) CAM-B3LYP/6-31G(d,p) 

TD

0 1
12 -7.16534820412041  0.65716395709571  0.10065811441144
 6 -4.88563744484448 -1.93589570087009  0.48777441234123
 6 -4.95790509680968  2.78141246854685  1.29509296649665
 6 -9.48331292009201  3.10767316671667 -0.25792712571257
 6 -9.47027805540554 -1.73725390039004 -0.86985510051005
 7 -5.15032781438144  0.41340260076008  0.83631115151515
 6 -4.32994059935994 -0.74983560396040  0.82154405720572
 6 -2.95828678987899 -0.36221149324932  1.28735417661766
 6 -3.17413770297030  1.12034316681668  1.74015682208221
 6 -4.47472555925593  1.50416079647965  1.16976323752375
 6 -2.93709150015001  1.41087757505751  3.18716224232423
 6 -1.92571685258526 -0.54542855295530  0.07585691149115
 6 -0.54057231123112 -0.42800103150315  0.58009659255926
 6  0.44586396479648 -0.67221065316532 -0.60129178097810
 8  0.28263881358136 -1.03344474827483 -1.72437171747175
 8  1.81733875887589 -0.42219712651265 -0.15391961206121
 7 -7.16732434093409  2.61765317261726  0.45065022182218
 6 -6.14088121912191  3.34174512841284  1.02122010601060
 6 -6.44083207290729  4.75642627302730  0.99939770427043
 6 -7.76915751115112  4.76882676937694  0.41754866186619
 6 -8.20801135433543  3.38981927322732  0.23040337953795
 6 -5.59162494369437  5.89265035633563  1.27639416461646
 6 -8.69118833123312  6.05761082908291  0.35723574547455
 6 -8.12914211201120  7.21520760506051  0.05332106980698
 7 -9.07768280398040  0.64156063436344 -0.46733843914391
 6 -9.88024968396840  1.77732841544154 -0.60046517071707
 6 -11.15136987988799  1.40694168456846 -1.20437518711871
 6 -11.19841836253625  0.05651952925293 -1.28316758295830
 6 -9.90396027972797 -0.35237372547255 -0.87108641154115
 6 -12.24786302840284  2.42781506240624 -1.34404493539354
 6 -12.30766081178118 -0.70283134533453 -1.76268144534453
 6 -12.24451078307831 -1.25170905610561 -3.17355546094609
 7 -7.19539579167917 -1.37400676227623 -0.22989610831083
 6 -8.25887110941094 -2.19465540504050 -0.55999380528053
 6 -7.80356802430243 -3.60348453135313 -0.51569999899990
 6 -6.47441296329633 -3.55525984148415 -0.22337482958296
 6 -6.17375215341534 -2.18470462496250  0.05231685308531
 6 -8.58011835653565 -4.70329314821482 -0.82885243224322
 6 -5.25796233393339 -4.26676266156616  0.14091259115912
 8 -5.11165252705270 -5.50465311891189  0.18944497929793
 6 -4.16444985498550 -3.22010494459446  0.52455334733473
 6 -3.44555892009201 -3.59781586618662  1.75705688538854
 8 -3.75102875747575 -3.05827906070607  2.83104681998200
 8 -2.48657000490049 -4.47742589508951  1.56926501450145
 6 -1.85213785228523 -4.98026849614962  2.73728506550655
 6  2.85593937053705 -0.78267752545254 -1.12668804370437
 6  4.12738606100610 -0.67983183258326 -0.55816834553455
 6  5.05583919131913  0.18812213671367 -0.88686858705871
 6  5.03617103370337  0.92820735703570 -2.31724881598160
 6  6.35729218681868  0.40158896579658 -0.22026871307131
 6  7.62858059695970 -0.17091897379738 -0.88976864556456
 6  8.91020010241024 -0.04907464096410 -0.12359495369537
 6  10.15713660666067 -0.67684478277828 -0.87249364376438
 6  9.98994618081808 -2.18312764766477 -1.20235189668967
 6  11.41969308640864 -0.48499939053905  0.06572677137714
 6  12.78109527852785 -0.59803631953195 -0.74014455425543
 6  13.98814450225023 -0.27537430063006  0.02431964496450
 6  15.36504184818482 -0.33016562826283 -0.61752480278028
 6  15.76158026022602 -1.69776256205621 -0.92862014181418
 6  16.41322457645764  0.39456384248425  0.38924810951095
 6  17.74133983828383  0.68549667546755 -0.29043732363236
 6  18.66534193369337  1.32867471427143  0.70585294699470
 6  20.23154083388339  1.47496324092409  0.22099170277028
 6  20.38484871377138  2.32415806380638 -1.01521734313431
 6  21.05942381648165  2.00568493789379  1.48774547614761
 1 -4.23770402890289  3.37988637033703  1.91217573857386
 1 -10.15908966066607  4.12167975187519 -0.66031033363336
 1 -10.16874613641364 -2.54191424612461 -1.37338088558856
 1 -2.51457014771477 -1.00681034473447  2.05671290989099
 1 -2.48412805080508  1.78452694129413  1.30797516401640
 1 -1.81505522882288  1.24203969296930  3.45241545494550
 1 -3.13886867306731  2.47346680328033  3.27643221072107
 1 -3.61958293949395  0.56928129582958  3.65882976747675
 1 -1.93867639453945 -1.62155807620762 -0.59070405640564
 1 -2.07846204840484  0.15777786908691 -0.67750285188519
 1 -0.65613270727073  0.61285920942094  1.04484673657366
 1 -0.30478643234323 -1.43930690609061  1.34437731363136
 1 -4.97277944564456  5.99520469556956  0.37601938413841
 1 -6.01890656095610  6.90990078887889  1.54521921112111
 1 -5.15671890069007  5.51843701510151  2.11536521522152
 1 -9.84040153905390  6.01682461856186  0.38025587008701
 1 -8.72536317671767  8.23146173567357  0.38613920722072
 1 -7.04998003460346  7.26975754495450 -0.30385485608561
 1 -12.10235564836484  3.00691799709971 -2.27106340474047
 1 -13.40619583308331  1.82987862596260 -1.39201272497250
 1 -12.50491745314532  3.30295338073807 -0.66348784678468
 1 -12.53478600670067 -1.45242764096410 -1.00967117501750
 1 -13.16962296589659 -0.05257907090709 -1.59354671167117
 1 -13.09858032423242 -2.00359159835984 -3.35582858055806
 1 -12.21703187718772 -0.56831555745575 -3.86217379237924
 1 -11.36773012061206 -1.83838678267827 -3.26077519301930
 1 -8.90123101900190 -4.73910675897590 -1.94329191059106
 1 -7.99802350335033 -5.64004411261126 -0.69495372347235
 1 -9.50547271307131 -4.66329311631163 -0.28763701990199
 1 -3.51211134313431 -3.32426401090109 -0.36838349134913
 1 -0.96046713671367 -4.22221059835984  2.84802148914892
 1 -2.59978516591659 -5.23402404480448  3.45020224232423
 1 -1.48129955645565 -6.12536671377138  2.40669737263726
 1  2.55719039013901 -1.76792648254825 -1.43583766006601
 1  2.54505620582058 -0.18052513411341 -1.99172119191919
 1  4.50173939823982 -1.19571757795780  0.33761613781378
 1  4.12673360966097  1.11726282258226 -2.98662200450045
 1  5.44127742614261  1.82673706390639 -2.18921327592759
 1  5.80983630643064  0.25063539373937 -3.02266356565657
 1  6.57254027732773  1.45426165386539 -0.17679018131813
 1  6.25903925192519 -0.00038328722872  0.85488649574958
 1  7.45604934703470 -1.01089216091609 -1.21481561026103
 1  7.79218074907491  0.35536241274127 -1.81548169506951
 1  9.04830092729273  0.97260987748775 -0.07369340684068
 1  8.70944876767677 -0.59203755915592  0.82809742834283
 1  10.30272198369837  0.01172593889389 -1.79708353895390
 1  9.28177467386739 -2.34618166246625 -2.05114007520752
 1  11.03313639833983 -2.50997751035104 -1.66010219621962
 1  9.47724519811981 -2.86316793939394 -0.36376846754675
 1  11.24295905810581  0.55767017451745  0.75274723812381
 1  11.37587799749975 -1.33363570167017  0.77563503650365
 1  12.94287002270227 -1.69110597199720 -0.77157549244924
 1  12.62569147514752  0.04003348234823 -1.57560592439244
 1  14.02872437563756  0.81446470197020  0.64710137063706
 1  13.97260335063506 -0.80689312661266  0.99009417911791
 1  15.32172456455646  0.52235209560956 -1.48483814331433
 1  16.04598659965997 -2.04196092199220  0.10882328472847
 1  14.84599213101310 -2.36837503110311 -1.38644636503650
 1  16.62974103270327 -1.72255618421842 -1.53608571737174
 1  16.12711792149215  1.32167123982398  0.69171259225923
 1  16.56557825982598 -0.19151554725473  1.38801173287329
 1  18.15161435333534 -0.38192515631563 -0.74820082768277
 1  17.42058213941394  1.33353461196120 -1.18522200610061
 1  18.24196287908791  2.27948984858486  0.94111921282128
 1  18.71190746814681  0.77883149444944  1.57991434303430
 1  20.40261032773277  0.47502393819382  0.06254400480048
 1  20.17116394969497  3.28878786368637 -0.88626889638964
 1  21.35217133103311  2.37867374527453 -1.47583883788379
 1  19.76782761596159  2.00552195449545 -1.92936335963596
 1  20.88031804710471  1.56159546334633  2.48649809140914
 1  22.19408404890489  1.98200673187319  1.28800306650665
 1  20.70509304190419  3.02400607680768  1.87349328052805

