%nproc=4
%Mem=2GB
# td=(NStates=1) CAM-B3LYP/6-31G(d,p) 

TD

0 1
12 -7.09633130243024  0.50281852255226  0.06700474907491
 6 -4.89706858795880 -1.95071718301830  0.40688632353235
 6 -4.75752505880588  2.80648497579758  1.21677513471347
 6 -9.33546813561356  3.13918631803180 -0.45785711871187
 6 -9.51864289188919 -1.71760193519352 -0.83497161216122
 7 -5.16817959955996  0.41806306680668  0.66062358275828
 6 -4.31744935023502 -0.75727634803480  0.73928583138314
 6 -2.85298625982598 -0.45538081018102  1.16417185838584
 6 -3.06655694489449  0.95122625512551  1.68186099249925
 6 -4.36990507720772  1.45043542394239  1.04941120232023
 6 -2.91008879987999  1.07854434173417  3.20015354145415
 6 -1.81387566846685 -0.60961497159716  0.07688701450145
 6 -0.36060431443144 -0.47215544694469  0.66094467736774
 6  0.57708708710871 -0.61276470857086 -0.53719537133713
 8  0.24805535523552 -0.86967837163716 -1.67678695899590
 8  1.78647567256726 -0.34658956575658 -0.15734995509551
 7 -7.01768937743774  2.55184659195920  0.33688884568457
 6 -6.05608273927393  3.27106806070607  0.84513249724973
 6 -6.40945893559356  4.67793842424242  0.88525629012901
 6 -7.68087868326833  4.85820570727073  0.48228513551355
 6 -8.14404495769577  3.45182547384738  0.10949128832883
 6 -5.46600238143814  5.76875796709671  1.42935946114611
 6 -8.53634284668467  5.93900896889689  0.32951297319732
 6 -8.16808600640064  7.15501158545855  0.13052879057906
 7 -9.10482551825183  0.68147462576258 -0.60466217151715
 6 -9.89375103410341  1.80627130973097 -0.61491661586159
 6 -11.22524726762676  1.48762975337534 -1.12089683928393
 6 -11.23044156485648  0.09683356065607 -1.26950621682168
 6 -9.97970785448545 -0.39243773187319 -0.92380168306831
 6 -12.32999124122412  2.48787106800680 -1.45418594949495
 6 -12.42249229492949 -0.76496755895590 -1.79209438663866
 6 -12.26224255625563 -0.87788167336734 -3.38309641504150
 7 -7.15789204130413 -1.36586594819482 -0.22989610831083
 6 -8.25019024132413 -2.22174811431143 -0.60304811071107
 6 -7.87563523102310 -3.64193837673767 -0.61068949794979
 6 -6.54462998499850 -3.57705202070207 -0.08571106320632
 6 -6.18740351855185 -2.27470362486249  0.11709333073307
 6 -8.58665901060106 -4.87192001090109 -0.97946749374937
 6 -5.39162570027003 -4.36690267556756  0.15590409030903
 8 -5.19971133293329 -5.64317697129713  0.15446148094809
 6 -4.21817522752275 -3.29548248234823  0.59042993499350
 6 -3.72829719391939 -3.74623070767077  2.00383156285629
 8 -4.09819347394740 -3.15183841664166  3.02923663896390
 8 -2.85174652255226 -4.72941109360936  1.94228231623162
 6 -2.23923656215622 -5.07966843614361  3.15993733073307
 6  2.80590436703670 -0.54619387708771 -1.15643101800180
 6  4.15185850825083 -0.36708055745575 -0.49747227592759
 6  5.10086369376938  0.46384970947095 -0.94748464866487
 6  5.00275769236924  1.37598213451345 -2.13795088618862
 6  6.33957041464146  0.50642944984498 -0.08328501470147
 6  7.66090382928293  0.08674679277928 -0.91207087578758
 6  8.93508259065907  0.00471073757376 -0.07138973317332
 6  10.23387428042804 -0.56625372367237 -0.83973036743674
 6  10.08074526072607 -2.10674000890089 -1.08018968046805
 6  11.44543566066607 -0.31847273787379 -0.05684548584858
 6  12.75765293429343 -0.55872238813881 -0.70710124992499
 6  14.00044573237324 -0.33603036623662  0.26644385738574
 6  15.28654399839984 -0.20058266996700 -0.45979903020302
 6  15.67175127732773 -1.60307309310931 -1.13275055485549
 6  16.34511776577657  0.42984737083708  0.39014819951995
 6  17.88166387068707  0.56414454025403 -0.26541482138214
 6  18.78337373687369  1.27734958175818  0.60277263896390
 6  20.19146682648265  1.36198194279428  0.14098370197020
 6  20.27435766466646  2.17733338133813 -1.17572339373937
 6  21.23176105020502  1.99530389978998  1.19244594619462
 1 -4.07626788528853  3.43100148184819  1.48700322132213
 1 -9.95653940564056  4.01507909180918 -0.81666596919692
 1 -10.21983124492449 -2.56750680538054 -1.26954050155016
 1 -2.63894258495850 -1.16484614831483  1.93122036063606
 1 -2.16419605760576  1.64937342594259  1.29000336683668
 1 -1.99578330163016  1.16221171017102  3.76772698609861
 1 -3.20003478967897  1.99339879647965  3.71990655815582
 1 -3.64350533173317  0.25081944964496  3.48829271377138
 1 -1.84471699859986 -1.43912983338334 -0.62093707970797
 1 -2.00624482668267  0.14486657795780 -0.73837893949395
 1 -0.22514960896090  0.46610453395340  1.24537678957896
 1 -0.09493544724472 -1.12006498189819  1.34558743464346
 1 -4.82723489118912  6.04031920702070  0.61917369956996
 1 -5.90228489878988  6.62605240404040  1.95527021622162
 1 -4.62126535533553  5.49368453985399  1.91023470217022
 1 -9.60871837073707  5.74304724082408  0.44723256775678
 1 -8.66112675307531  8.08876746624662  0.31706229952995
 1 -7.04676971357136  7.43195376457646  0.18339386878688
 1 -11.88126353915392  3.17405471077108 -2.14072037043704
 1 -13.21317653115312  1.88136377447745 -1.71651517521752
 1 -12.36733369476948  3.05295838123812 -0.56901839983998
 1 -12.33095562366237 -1.82436483468347 -1.31167137503750
 1 -13.33264926852685 -0.38924273727373 -1.57961531853185
 1 -13.00051051725172 -1.61477271647165 -3.77420041774177
 1 -12.24874504850485  0.05566684078408 -4.05205278027803
 1 -11.49951329892989 -1.48458140214021 -3.45319443494349
 1 -9.08303919981998 -4.81530437873787 -1.98282586398640
 1 -7.92528622962296 -5.63176328452845 -0.80859508760876
 1 -9.21528369416942 -4.87230401740174 -0.18258651485148
 1 -3.38846897889789 -3.48875045954595  0.07109045604560
 1 -1.36747783778378 -4.42414079137914  3.63974066106611
 1 -2.99813500090009 -5.33720436283628  4.19274649674967
 1 -1.76234766126613 -6.18410258735874  2.80072677557756
 1  2.72562723382338 -1.45565525542554 -1.48483255955596
 1  2.68599029922992  0.04204712311231 -2.05466748654865
 1  4.13067229152915 -1.02861086728673  0.51208358455846
 1  4.01338227452745  1.66889798609861 -2.78392173447345
 1  5.35288858725873  2.23049743994399 -1.99445379998000
 1  5.47318264106411  0.67433776397640 -2.90847214651465
 1  6.67984100740074  1.39331555925593  0.15699319701970
 1  6.28775212321232 -0.07595084398440  0.74258526562656
 1  7.48152189428943 -1.02266333803380 -1.35861999069907
 1  7.68827035803580  0.63209008550855 -1.92676282318232
 1  9.22276837403740  0.99480209670967  0.23652761526153
 1  8.79007683048305 -0.78368672407241  0.77496211481148
 1  10.28482019351935 -0.10982621632163 -1.80304413501350
 1  8.99657615401540 -2.33473051735174 -1.43195815701570
 1  10.74123720842084 -2.44164067666767 -1.84296048204820
 1  10.25755322892289 -2.77218884148415 -0.10295238593859
 1  11.35243000520052  0.67263167066707  0.42775473887389
 1  11.62231264096410 -1.02525486358636  0.93026049904991
 1  12.69998573427343 -1.61035789718972 -0.90007834273427
 1  12.80744965096510  0.14496397539754 -1.70959932373237
 1  13.72607411061106  0.70796405190519  0.75113177367737
 1  13.96671276157616 -1.00462289958996  1.07800296999700
 1  15.31841423352335  0.55660552095210 -1.27506716621662
 1  15.85125712671267 -2.39019574547455 -0.41901949954996
 1  14.92303983578358 -1.99632782638264 -1.90090781118112
 1  16.59784784338434 -1.48564249284929 -1.69989209800980
 1  16.17572278197820  1.44658373107311  0.86059948094809
 1  16.70037173917392 -0.30791718741874  1.25249818151815
 1  18.40983017491750 -0.51429839363936 -0.21166717431743
 1  17.85415549674968  0.90482174067407 -1.28746223012301
 1  18.27421610441044  2.30735263486349  0.78299340024002
 1  18.90251652905290  1.01243485478548  1.75191154275428
 1  20.67750781748175  0.26213264906491 -0.08269051865187
 1  20.13343017631763  3.20252923782378 -0.84095436493649
 1  21.33978009190919  2.16660253815381 -1.59881113511351
 1  19.43954478767877  1.82617401970197 -1.95570599389939
 1  21.57206722202220  1.37032633643364  1.95786522812281
 1  22.17800244074407  2.16805533673367  0.55684995119512
 1  20.90367289988999  3.11117479367937  1.65384131533153

