%nproc=4
%Mem=2GB
# td=(NStates=1) CAM-B3LYP/6-31G(d,p) 

TD

0 1
12 -7.15090675997600  0.66914515521552  0.15612366096610
 6 -4.86905578667867 -1.92271438273827  0.46780241514151
 6 -4.73340264656466  2.90566489378938  1.22251570877088
 6 -9.51318590739074  3.09155155455546 -0.31606293929393
 6 -9.44956598419842 -1.77138731373137 -0.92117023202320
 7 -5.13739652125213  0.39818107860786  0.77029454985499
 6 -4.34212181748175 -0.69297991839184  0.86453835663566
 6 -2.94847580878088 -0.35615088718872  1.29960540174017
 6 -3.08555884508451  1.16904803730373  1.69027183358336
 6 -4.35998408510851  1.52606298669867  1.08884514571457
 6 -2.83712150315031  1.46005249254925  3.17888141424142
 6 -1.94117839873987 -0.68187219731973  0.31076040184018
 6 -0.41453970797080 -0.43824205560556  0.68362694559456
 6  0.51920129852985 -0.60012344444444 -0.49498114991499
 8  0.26309685938594 -0.92011341514151 -1.68683796409641
 8  1.81515854085409 -0.42093700050005 -0.20313453355336
 7 -7.17007461596160  2.56970837813781  0.38208336513651
 6 -6.12527965896590  3.33872482638264  0.84657264126413
 6 -6.48061605130513  4.66602723312331  0.87781554605461
 6 -7.82345294069407  4.76269615631563  0.40442734973497
 6 -8.22252280548055  3.42211250255026  0.12873321252125
 6 -5.73383916511651  5.91932302360236  1.36951347654765
 6 -8.70495970837084  5.93420848884888  0.30323034493449
 6 -8.23474267206721  7.18780486478648  0.09125486318632
 7 -9.16551158685869  0.69085556385639 -0.65132683798380
 6 -9.94958661766177  1.87655833843384 -0.64296942114211
 6 -11.24405914881488  1.44601559195920 -1.15496024562456
 6 -11.25392391309131  0.01747562486249 -1.31136040224022
 6 -9.95298518221822 -0.46444493259326 -0.91415071797180
 6 -12.43056129822982  2.29403168406841 -1.35479601050105
 6 -12.44456450215021 -0.83200426262626 -1.76639181638164
 6 -12.20119645164517 -1.16726061126113 -3.30532863826383
 7 -7.14508076017602 -1.32231159275928 -0.20314343304330
 6 -8.25119034133413 -2.22580852035204 -0.52516032193219
 6 -7.77755542304230 -3.65402958585859 -0.37509593859386
 6 -6.48678420042004 -3.54297861336134  0.00762827072707
 6 -6.16700147834783 -2.17542369686969  0.12685430683068
 6 -8.61276162086209 -4.87943076197620 -0.71122066906691
 6 -5.20476701440144 -4.36940292559256  0.21965046494649
 8 -5.03864522632263 -5.60438309190919  0.19643567836784
 6 -4.10632404240424 -3.33419635373537  0.53387427942794
 6 -3.44340870507051 -3.68676476107611  1.86816799649965
 8 -3.65169882448245 -3.11930516331633  2.82728644394439
 8 -2.58947029492949 -4.71635978847885  1.57915600360036
 6 -2.00477311581158 -5.18111858115812  2.81377271427143
 6  2.82850662726273 -0.57056631433143 -1.18043341824182
 6  4.13598692109211 -0.28777262666267 -0.64345687438744
 6  5.11934554195420  0.50360368486849 -1.06425632583258
 6  5.01465888248825  1.39735427172717 -2.23287037813781
 6  6.41575803340334  0.61378018491849 -0.26748343454345
 6  7.56613435233523 -0.01920380228023 -0.95453512221222
 6  8.80700978337834 -0.00281001450145 -0.05048764296430
 6  10.09065995899590 -0.51002810111011 -0.88316471087109
 6  10.06642382858286 -2.00329966486649 -1.27778944044404
 6  11.34421553865387 -0.27813870447045  0.00101029972997
 6  12.73158032703270 -0.45487200310031 -0.73765430523052
 6  13.90759644744474 -0.05861262446245  0.06079329232923
 6  15.28337368136814 -0.18076068776878 -0.60929397969797
 6  15.63538764096410 -1.73107589338934 -0.98451573137314
 6  16.45337859185918  0.29045343144314  0.40646983168317
 6  17.87113281758176  0.51726985278528 -0.18391667156716
 6  18.90820622012201  0.96573842064206  0.84903726542654
 6  20.36235391519152  1.22133787838784  0.20399000260026
 6  20.34960518941894  2.16181182918292 -0.97769359075908
 6  21.25892376647665  1.62789715911591  1.43319002060206
 1 -4.12948320682068  3.60433881558156  1.47079160016002
 1 -10.42456620832083  3.83197078097810 -0.56576087868787
 1 -10.22215147694769 -2.48614866956696 -1.23990753825383
 1 -2.76915560626063 -0.91983164686469  2.43007024562456
 1 -2.35706534453445  1.68274676327633  0.92784715121512
 1 -2.00163388668867  0.90086557555756  3.64650486388639
 1 -2.78284307050705  2.59388884548455  3.34902947044705
 1 -3.63483446464646  0.97000136783678  3.92449633413341
 1 -2.18866139303930 -1.90993691409141 -0.02217720372037
 1 -1.88910311251125 -0.09857776647665 -0.82006710831083
 1 -0.13187028102810  0.48823674717472  0.80913316521652
 1 -0.26294224792479 -1.06876985238524  1.61829470537054
 1 -5.12269443714371  6.23180835593559  0.36504828702870
 1 -6.28204287458746  6.84403420222022  1.48617330653065
 1 -4.97282051085108  5.38357352875288  2.11051473017302
 1 -9.72662016091609  5.73143607970797  0.40517836233623
 1 -8.89621026142614  8.15478406790679 -0.07195660236024
 1 -7.27749278587859  7.23083365256526 -0.21952642324232
 1 -12.15888130093009  2.84774207950795 -2.42077837623762
 1 -13.32356757025702  1.64531016911691 -1.53161668536854
 1 -12.56333329472947  3.02307539293929 -0.50217171517152
 1 -12.38350087818782 -1.72797519571957 -1.27914812271227
 1 -13.37838384198420 -0.23267708070807 -1.67939529652965
 1 -13.13520398659866 -1.78828006720672 -3.68789178687869
 1 -12.23373354735474 -0.35161388728873 -3.88883645864586
 1 -11.21316466406641 -1.65322826682668 -3.29157827332733
 1 -9.24895579147915 -4.81668451675167 -1.53466104750475
 1 -7.81239494049405 -5.73894400260026 -0.54459868796880
 1 -9.44356652245224 -4.99330611761176 -0.00942919911991
 1 -3.39475960796080 -3.65077666216622 -0.43785043804380
 1 -1.55167625762576 -4.47075545284528  3.44542122912291
 1 -2.78005319271927 -5.72302294469447  3.26042326442644
 1 -1.30700212671267 -6.03363754085409  2.60511721462146
 1  2.47957262836284 -1.62825251515152 -1.62201627792779
 1  2.47733943414341  0.07939085748575 -2.04731675147515
 1  4.42247147144714 -0.87316532273227  0.32956533273327
 1  3.98891982828283  1.51922301860186 -2.39559290159016
 1  5.50507380578058  2.36790118031803 -2.03121747634764
 1  5.46456177897790  1.13976430663066 -3.14113541284128
 1  6.67622064536454  1.59585581328133 -0.17152965526553
 1  6.30620396839684  0.21207795889589  0.65872687978798
 1  7.44520826292629 -1.02483355505551 -1.18134226292629
 1  7.91148267926793  0.36513338983898 -1.96803695059506
 1  9.07443354055405  1.10238285478548  0.08127208970897
 1  8.74818264106411 -0.66269462486249  0.68076269486949
 1  10.20164187568757  0.01928669496950 -1.84237806840684
 1  9.26169266566657 -2.09333637793779 -2.14515947714771
 1  11.06966005070507 -2.36302281488149 -1.64188037403740
 1  9.60306778037804 -2.70305192779278 -0.47173926462646
 1  11.25694045624562  0.82794720222022  0.43552551595160
 1  11.45533594329433 -1.05747808590859  0.76736420942094
 1  12.55751148684869 -1.56210307170717 -0.82056039093909
 1  12.65762466846685 -0.01135165616562 -1.92215057885789
 1  13.87878938213821  1.03484674017402  0.38740540104010
 1  13.75924201450145 -0.65810824812481  0.95368053775377
 1  15.26367875997600  0.41869172957296 -1.38704836433643
 1  15.51975397639764 -2.25460218611861  0.07900030243024
 1  15.00546807860786 -2.24828302190219 -1.64593231363136
 1  16.64348240684069 -2.01177510611061 -1.39906201500150
 1  16.12960817051705  1.30655972867287  0.98738215921592
 1  16.42103380538054 -0.49032542824282  1.17672060376038
 1  18.03665285718572 -0.47028399219922 -0.86206221382138
 1  17.64167424862486  1.41505276377638 -1.01908539243924
 1  18.51943062586259  1.90430232983298  1.29663476437644
 1  18.87350362776278  0.29716332763276  1.63925027662766
 1  20.59540960766077  0.09838627442744 -0.07275952555256
 1  19.77573440674067  3.18954793969397 -0.93654392389239
 1  21.36524263816382  2.19898577647765 -1.11196245024502
 1  20.03660449364936  1.68834023632363 -1.91587201050105
 1  20.99258927422742  0.93201250505051  2.14449389098910
 1  22.26314095459546  1.68822735393539  1.20838510471047
 1  21.07494002660266  2.62695637183718  1.60877680888089

