%nproc=4
%Mem=2GB
# td=(NStates=1) CAM-B3LYP/6-31G(d,p) 

TD

0 1
12 -7.14971664096410  0.63083132383238  0.00280832943294
 6 -4.86561544264426 -1.88478058935894  0.52952858775878
 6 -4.88373768006801  2.77727205450545  1.20988444564456
 6 -9.34642923172317  3.07553995339534 -0.39761109410941
 6 -9.50993202080208 -1.78132830783078 -0.95394350935094
 7 -5.03654643624362  0.41106236673667  0.79193671407141
 6 -4.31411901720172 -0.67348796919692  0.80889279207921
 6 -2.86151711291129 -0.34308958105811  1.41450689188919
 6 -2.98251854105411  1.09184031653165  1.88863166956696
 6 -4.42257034373437  1.44064444484448  1.26844310551055
 6 -3.19528731973197  1.24217070437044  3.40490401650165
 6 -1.86663094399440 -0.56731074117412  0.20883020882088
 6 -0.43251150515051 -0.29897812921292  0.63120170307031
 6  0.51124050245024 -0.49810324242424 -0.47102875467547
 8  0.26383693339334 -0.75639704350435 -1.66181546184618
 8  1.77298432343234 -0.23696860366037 -0.20534475457546
 7 -7.17527513601360  2.59626103340334  0.33425858265827
 6 -6.10727785878588  3.29318027192719  0.80215819981998
 6 -6.47324531423142  4.74922555295529  0.86478424292429
 6 -7.76467706310631  4.88997888458846  0.36305321232123
 6 -8.16699725292529  3.43652394369437  0.07975831503150
 6 -5.58406418761876  5.85279637093709  1.31891841704170
 6 -8.70598981138114  6.00963603160316  0.30194021592159
 6 -8.29667886568657  7.35385146944695  0.13030876857686
 7 -9.13739877557756  0.68202468076808 -0.52519422472247
 6 -9.89625128412841  1.77682836543654 -0.65130025422542
 6 -11.21056579947995  1.41658264866487 -1.13210796039604
 6 -11.25457397809781  0.06587046434643 -1.27804707090709
 6 -10.07280716441644 -0.39461794989499 -0.79532883578358
 6 -12.38693693579358  2.39362164306431 -1.40171070197020
 6 -12.37100714641464 -0.85133619581958 -1.71632680988099
 6 -12.33358969096910 -1.26211009620962 -3.21513961936194
 7 -7.21760801290129 -1.32214157575758 -0.22511563026303
 6 -8.25561078337834 -2.23000894039404 -0.62852065796580
 6 -7.73959162666267 -3.59462364526453 -0.54603303230323
 6 -6.45144066606661 -3.48732304780478 -0.15955844794479
 6 -6.18032281048105 -2.12064821932193  0.07249887128713
 6 -8.61725206990699 -4.87393021192119 -0.94324387138714
 6 -5.23925046274627 -4.34455044034403  0.22095059495950
 8 -5.04888625042504 -5.55275792939294  0.24629066386639
 6 -4.15781919191919 -3.24157709180918  0.56047693969397
 6 -3.46640100430043 -3.60986707130713  1.81236241594159
 8 -3.54656831143114 -3.08449168196820  2.93832754805481
 8 -2.63261460936094 -4.65600375287529  1.62033012101210
 6 -1.89165180368037 -5.24130459975998  2.75961729872987
 6  2.75663944054405 -0.56826608430843 -1.17765314021402
 6  4.15572889528953 -0.46099994939494 -0.56414894359436
 6  5.10153376077608  0.36998032253225 -0.88921882208221
 6  5.10515793239324  1.18876341264126 -2.04764185528553
 6  6.36237269486949  0.35923473037304 -0.09048573477348
 6  7.58244598349835 -0.28191007290729 -0.99333900260026
 6  8.93641272367237 -0.19640937443744 -0.22246484068407
 6  10.23071396439644 -0.64357145544554 -1.02625902030203
 6  10.11076826302630 -2.15714504940494 -1.50851251275128
 6  11.47570868796880 -0.39509039963996  0.00490068876888
 6  12.85140230923092 -0.72991950785079 -0.75214575437544
 6  13.96323201100110 -0.16123288648865  0.09682689568957
 6  15.41288663266327 -0.31953456515652 -0.46409946024602
 6  15.76453055525553 -1.75541832763276 -0.78699597939794
 6  16.30709396339634  0.38063244934493  0.50898008270827
 6  17.71365707000700  0.51785991179118 -0.13677195709571
 6  18.72853825332533  1.24432627942794  0.74106646834683
 6  20.12808048784878  1.46157190179018  0.12141174477448
 6  20.17168739763976  2.23549919791979 -1.08636445784578
 6  21.09549742384239  1.89816418581858  1.21797849944994
 1 -4.20155041354135  3.64313269496950  1.41385590659066
 1 -10.16031978367837  3.78248583248325 -0.74906920952095
 1 -10.22994225602560 -2.44386444114411 -1.27014056155616
 1 -2.47585627632763 -1.00214987868787  2.14887212581258
 1 -2.29313895189519  1.71195968456846  1.11497586408641
 1 -2.14901862516252  0.92492798179818  3.91608182158216
 1 -3.42307709390939  2.20139959655966  3.70476504400440
 1 -4.19942092329233  0.50895526322632  3.85533941844184
 1 -1.76501902880288 -1.63275919631963  0.13682869686969
 1 -2.15804000620062  0.12552464376438 -0.65119022062206
 1 -0.17336443044304  0.75008293179318  1.08128037993799
 1 -0.25124107780778 -1.03723669906991  1.40144302020202
 1 -4.99801196889689  6.15814098919892  0.52374415661566
 1 -6.42742741304130  6.59374917371737  1.45649033823382
 1 -5.06792002080208  5.53689886128613  2.22493617231723
 1 -9.75403290219022  5.72042497859786  0.46775461996200
 1 -8.98331897229723  8.05362395189519  0.11900249354935
 1 -7.15580061666167  7.51168173737374 -0.11250572117212
 1 -11.97428284108411  3.16695400070007 -2.05571186958696
 1 -13.19140435393539  1.77503314141414 -1.78051157485749
 1 -12.55163212461246  2.81346443184318 -0.58099959795980
 1 -12.03634616271627 -1.75962836103610 -1.03814402230223
 1 -13.38087409100910 -0.54333814681468 -1.37476483348335
 1 -12.97780824702470 -2.19600083928393 -3.39383238093809
 1 -12.42306248024803 -0.29825855175518 -3.76103367836784
 1 -11.27452079967997 -1.63337628162816 -3.42106122162216
 1 -9.08047894379438 -4.83044589288929 -2.02457003840384
 1 -8.01155485648565 -5.70521062926293 -1.04310853895390
 1 -9.35521768756876 -4.93752053905390 -0.26571482768277
 1 -3.61563169516952 -3.39189077357736 -0.32203885688569
 1 -1.56388747874787 -4.25895427272727  3.20866755375538
 1 -2.48389357675768 -5.67440808320832  3.60717793989399
 1 -1.07869929642964 -5.87356153325333  2.36379308220822
 1  2.45055972707271 -1.55251494139414 -1.51270534683468
 1  2.61625332553255  0.22219513791379 -1.97932995279528
 1  4.05941516581658 -1.04243224942494  0.47396977317732
 1  4.07274821112111  1.57842893919392 -2.20336367866787
 1  5.80758405680568  2.09374376457646 -1.73568792339234
 1  5.67997332013201  0.69080941114111 -3.06930823012301
 1  6.56761978527853  1.43595982368237  0.20652815051505
 1  6.39918326632663 -0.14212746164616  0.72446345344534
 1  7.20234397649765 -1.36490756245625 -1.17100122882288
 1  7.61162269326933  0.28607548404841 -1.88970911781178
 1  9.11449754695469  1.03212582908291 -0.08122415991599
 1  8.73909173197320 -0.60071842724272  0.74147876647665
 1  10.33303501500150  0.08311307760776 -1.79958378897890
 1  9.14931142754275 -2.23987103140314 -2.07287224842484
 1  10.96936002070207 -2.22342885548555 -2.21596778277828
 1  10.07750522412241 -2.66537816041604 -0.51338342904290
 1  11.46374113631363  0.78076248374838  0.13249521292129
 1  11.20836124582458 -0.78342068016802  1.01272874587459
 1  12.96835257095710 -1.77826468786879 -1.14234256915692
 1  12.77790669666967 -0.22816333733373 -1.83054141794179
 1  13.81209271247125  0.95980923642364  0.28032469296930
 1  13.83932002230223 -0.81282371967197  1.08130330003000
 1  15.24307669976998  0.33121298169817 -1.26257591709171
 1  15.86094809580958 -2.49157588348835 -0.03135073267327
 1  14.90450798259826 -2.27424561816182 -1.23509122952295
 1  16.66847490609061 -1.86369029762976 -1.50140224902490
 1  15.94940014971497  1.34322339503950  0.79184260526053
 1  16.56679838183818 -0.15548194389439  1.38274120582058
 1  18.03445263716372 -0.50578754255425 -0.18682469006901
 1  17.55594567576758  1.08628988748875 -1.06146963086309
 1  18.42404108690869  2.29501140074007  1.26186128702870
 1  18.82176845424542  0.76637024832483  1.66992334393439
 1  20.25827589428943  0.40664710051005  0.04535228562856
 1  19.82158899219922  3.26799578447845 -0.80393066256626
 1  21.09005511941194  2.45902178007801 -1.50697195119512
 1  19.82703353655365  1.73365476777678 -1.88473889718972
 1  20.88728874417442  1.08566787058706  2.06474591619162
 1  22.28241288178818  1.96580511171117  1.11100536673667
 1  20.93085561816182  3.03152682888289  1.27650358155816

