%nproc=4
%Mem=2GB
# td=(NStates=1) CAM-B3LYP/6-31G(d,p) 

TD

0 1
12 -7.10179184848485  0.50408864956496  0.12218026662666
 6 -4.81619050015001 -1.94205631693169  0.53081871677168
 6 -4.79574888118812  2.82115644294429  1.19378283548355
 6 -9.45203979277928  3.07992039143914 -0.31520285328533
 6 -9.44174520212021 -1.75247542254225 -0.86754486948695
 7 -5.17269005060506  0.43155441594159  0.71914943534353
 6 -4.32993059835984 -0.70642126252625  0.79583148594859
 6 -2.96459742094209 -0.33023829592959  1.17976341754175
 6 -3.05145543474347  1.17086821932193  1.64741754815482
 6 -4.42050013671367  1.53244362476248  1.15935219641964
 6 -2.84868265926593  1.26164265156516  3.10552407850785
 6 -1.93650793169317 -0.63963797389739  0.02642196799680
 6 -0.48378663266327 -0.54388261966197  0.50615919881988
 6  0.45050442884288 -0.65218865096510 -0.75706735853585
 8  0.17115766546655 -1.03096450025002 -1.81565084538454
 8  1.77757478247825 -0.45141004780478 -0.38715293539354
 7 -7.12252986148615  2.65024643194319  0.44292944974497
 6 -6.09740687168717  3.39006996089609  0.91022900690069
 6 -6.43915190489049  4.74792542294229  0.84772253675368
 6 -7.71984257965797  4.83697358405841  0.43533044004400
 6 -8.19038959215922  3.50116040734073  0.06867720692069
 6 -5.71253703490349  5.84647573887389  1.25875240044004
 6 -8.59980919331933  5.95760082808281  0.37346736863686
 6 -8.22837203500350  7.24642072637264  0.12164790249025
 7 -9.07954298999900  0.64633111141114 -0.46775848114811
 6 -9.81951361036104  1.78203888648865 -0.55023014721472
 6 -11.19777452035204  1.50292128252825 -1.01123587318732
 6 -11.20984950565057  0.16818069536954 -1.21285055125513
 6 -9.87082696639664 -0.42714120222022 -0.78057736063606
 6 -12.36925516761676  2.52858513941394 -1.21852238313831
 6 -12.37288733443344 -0.70090115231523 -1.69647482468247
 6 -12.25823215521552 -1.11174505970597 -3.13341144654465
 7 -7.16589284138414 -1.39919928152815 -0.00867398609861
 6 -8.29018424072407 -2.31812775227523 -0.49150695659566
 6 -7.83433110061006 -3.67420160306031 -0.48468689768977
 6 -6.47730325232523 -3.58801311681168 -0.08272076417642
 6 -6.17058183638364 -2.20338649314931  0.09926154755476
 6 -8.58712905760576 -4.89179199809981 -0.84884443144314
 6 -5.26112264996500 -4.33773975927593  0.04130263016302
 8 -5.18004936673667 -5.55507816141614  0.19023505830583
 6 -4.12982639263926 -3.30696363046305  0.53116400840084
 6 -3.57606197039704 -3.63662974757476  1.88091927162716
 8 -3.82355601020102 -3.01746497929793  2.87752146744674
 8 -2.69266061396140 -4.66857501000100  1.89037712571257
 6 -2.08409104760476 -5.06951742104210  3.06842817981798
 6  2.80120389698970 -0.65252451015102 -1.35794116901690
 6  4.10295361776178 -0.45258910831083 -0.68627115581558
 6  5.09524313171317  0.32488581308131 -1.14163406360636
 6  5.14632204880488  1.19842437873787 -2.38895598669867
 6  6.34959141674167  0.34973378027803 -0.44874156035604
 6  7.62488022692269 -0.12651453335334 -1.19386905560556
 6  8.90330941334133 -0.13263299679968 -0.30361295549555
 6  10.21843273627363 -0.55122222052205 -0.96966336073607
 6  10.20632781898190 -2.05127446234623 -1.35759742124212
 6  11.48928004510451 -0.28325921652165 -0.02496229752975
 6  12.79765693469347 -0.49854637053705 -0.71701224102410
 6  13.98499418721872 -0.15588235143514  0.19617683068307
 6  15.29312465646565 -0.23306591829183 -0.33514656495650
 6  15.67499160136014 -1.62909569536954 -0.92514979477948
 6  16.39455270927093  0.39811419751975  0.53840302500250
 6  17.78243394769477  0.48036616241624 -0.05889416931693
 6  18.77953335283528  1.13343519031903  0.81634399609961
 6  20.20115779557956  1.38877462206221  0.31045064866487
 6  20.38861909080908  2.24682033003300 -0.76240206160616
 6  21.01484935903590  1.96949131853185  1.44119082068207
 1 -4.05692595109511  3.49731811351135  1.58474299529953
 1 -10.20147389908991  3.84769235313531 -0.55496979957996
 1 -10.05353461526153 -2.38388844354435 -1.23831737923792
 1 -2.61445013571357 -1.11735139883988  1.82753999259926
 1 -2.35845548354835  1.75382387098710  1.00223458995900
 1 -1.87579130243024  0.93999948894890  3.27321753515352
 1 -3.06199098529853  2.13558301490149  3.38029259675968
 1 -3.56857783898390  0.53155752345234  3.69193307780778
 1 -1.94385691259126 -1.76676259665967 -0.11806679267927
 1 -2.17333153535353  0.03796588788879 -1.02956805840584
 1 -0.19844693869387  0.42431035453545  1.24272652455246
 1 -0.42602855655566 -1.27701067646765  1.14093696959696
 1 -5.11100326802680  6.39998517361736  0.69936171837184
 1 -6.26495116541654  6.57506730553055  2.04515920512051
 1 -4.98695192399240  5.40533570497050  1.94856853555356
 1 -9.66798429732973  5.72816575267527  0.40838868336834
 1 -9.09610025042504  7.99932852235224  0.19998059135914
 1 -7.14819985658566  7.58511908110811  0.13461899129913
 1 -12.10758617141714  3.16938424372437 -1.86399269766977
 1 -13.36652186568657  2.11685732383238 -1.17730125382538
 1 -12.28065502690269  3.15129821522152 -0.15485698369837
 1 -12.20275280338034 -1.59993239143914 -1.24059426732673
 1 -13.17878388198820 -0.27727154015402 -1.69456681368137
 1 -13.21651211741174 -1.52385362456246 -3.59800279797980
 1 -12.06607678167817 -0.38321704760476 -3.67563513851385
 1 -11.50049339693969 -1.80164310831083 -3.33000211571157
 1 -9.22830372627263 -4.76392924122412 -1.92316989838984
 1 -7.95772947394739 -5.79710981918192 -1.02725695379538
 1 -9.40645281108111 -5.07659444644464 -0.14649290549055
 1 -3.40134026602660 -3.50558214271427 -0.22999965296530
 1 -1.45185627562756 -4.39365774307431  3.56346303330333
 1 -2.92509769716972 -5.08834947734773  3.64994221632163
 1 -1.51521294779478 -6.00458463556356  2.89992669556956
 1  2.63503817491749 -1.72440213011301 -1.86081015731573
 1  2.71296299649965  0.11886480488049 -2.10931295109511
 1  4.32399162346235 -1.10454846104610  0.16549892609261
 1  4.20257119341934  1.42289338563856 -2.92254559685969
 1  5.51072437083708  2.24389878007801 -2.23392774737474
 1  5.87550287308731  0.76414674487449 -3.33110440974097
 1  6.46750977427743  1.51253748144814 -0.27950045234524
 1  6.16360970897090 -0.09924317321732  0.50451145824582
 1  7.34404814691469 -1.21121219291929 -1.65716984568457
 1  7.92564409540954  0.54387126362636 -1.95452559945995
 1  9.05166126332633  0.99257187368737  0.02010597309731
 1  8.75748357115712 -0.67866622202220  0.61407602620262
 1  10.30286199769977  0.21959672597260 -1.79511334193419
 1  9.37335383178318 -2.36372341664166 -1.97800276147615
 1  11.03798688338834 -2.32062857545755 -2.06659284528453
 1  10.18323579717972 -2.70663228582858 -0.44281637233723
 1  11.27495225742574  0.73816822432243  0.15966793019302
 1  11.46826723642364 -0.77057939603960  0.90680815381538
 1  13.01199693539354 -1.53682054345434 -1.14750308520852
 1  12.97498640464046  0.22444192319232 -1.57873623742374
 1  13.86579808300830  0.94780803630363  0.49149581008101
 1  13.91729782008201 -0.77638007530753  1.00374554425443
 1  15.43873626572657  0.53528338873887 -1.27718737823782
 1  15.48008000900090 -2.48706543244324 -0.19853745134513
 1  14.96474400620062 -1.78385657925793 -1.72257997839784
 1  16.72350040864087 -1.65326925552555 -1.25451756055606
 1  16.05921113081308  1.40914998769877  0.65012843384338
 1  16.31338304030403 -0.11814821052105  1.74083701540154
 1  18.18884807670767 -0.47737470127013 -0.26836284388439
 1  17.79417949914992  0.85574683318332 -0.98802228612861
 1  18.35545422822282  2.11090298989899  1.13287838873887
 1  18.96342261966197  0.60663427472747  1.80119647124712
 1  20.67942800950095  0.40991742754275  0.04503225362536
 1  20.01527836113612  3.27776676157616 -0.58803907340734
 1  21.37005311921192  2.66177205510551 -1.32063331733173
 1  20.01577241044104  1.81465286758676 -1.70895131843184
 1  20.68821883718372  1.52151145494549  2.47714715631563
 1  22.07623226372638  2.01625015621562  1.22741700790079
 1  20.64008654125413  2.95394907110711  1.56163209440944

