%nproc=4
%Mem=2GB
# td=(NStates=1) CAM-B3LYP/6-31G(d,p) 

TD

0 1
12 -7.14293596289629  0.59017725842584  0.17834588318832
 6 -4.82782166326633 -1.99522163346335  0.54314994989499
 6 -4.78639794609461  2.77674200150015  1.28089154635464
 6 -9.44256884568457  3.11330372977298 -0.32362369536954
 6 -9.52037306490649 -1.77560773577358 -0.81049916491649
 7 -5.10811359295930  0.46476773727373  0.68556607700770
 6 -4.36918452375238 -0.73241386178618  0.75575747854785
 6 -2.89970093129313 -0.38648392049205  1.17556299749975
 6 -2.99931022022202  0.98361949444945  1.62135494189419
 6 -4.39659774647465  1.52833321372137  1.19933619481948
 6 -2.96634442544254  1.15204169146915  3.20399392549255
 6 -1.89731401230123 -0.55603961406141  0.02447177297730
 6 -0.50127838183818 -0.48035626702670  0.47739632253225
 6  0.52409178757876 -0.57094052615262 -0.60983263506351
 8  0.23720427012701 -0.89560096389639 -1.74235351565157
 8  1.77177420242024 -0.38139304610461 -0.21919613971397
 7 -7.12675028352835  2.60585199249925  0.31253641044104
 6 -6.09280641164116  3.36730768466847  0.88631661566157
 6 -6.35548353805381  4.74931556195620  0.87170493499350
 6 -7.63019361476148  4.84604449114912  0.38352525952595
 6 -8.17259781298130  3.43754404570457  0.11917225642564
 6 -5.52478826002600  5.90705179647965  1.34344086928693
 6 -8.55921513391339  6.08561362936294  0.33425344724472
 6 -8.07268646644664  7.27022310661066  0.10041577927793
 7 -9.13896893259326  0.62928940724072 -0.38422012731273
 6 -9.87269892889289  1.82434311691169 -0.62321744594459
 6 -11.14162890579058  1.45376636703670 -1.10743549314931
 6 -11.21288980968097  0.07138101540154 -1.34638390459046
 6 -9.97534741844184 -0.45284377247725 -0.89342864576458
 6 -12.25380362246225  2.43263554445445 -1.35863639453945
 6 -12.41752179787979 -0.74592565476548 -1.82752792999300
 6 -12.41626795879588 -1.10284416961696 -3.32522062746275
 7 -7.20599685178518 -1.42508186978698 -0.07060017871787
 6 -8.24727995029503 -2.24670060956096 -0.49173697959796
 6 -7.83813148064807 -3.62036621952195 -0.45245367436744
 6 -6.51085660766077 -3.66983129862986  0.04106161406141
 6 -6.18832361056106 -2.23749990449045  0.12447406880688
 6 -8.63941428612861 -4.79487230613061 -0.92542208920892
 6 -5.32291882958296 -4.37913389868987  0.27267576747675
 8 -5.12238360016002 -5.54164681828183  0.22232826762676
 6 -4.10667407740774 -3.37099003310331  0.50913180518052
 6 -3.51264562876288 -3.63579966456646  1.80789196889689
 8 -3.85990964556456 -3.16129936273627  2.96139985528553
 8 -2.55394674257426 -4.63402155465547  1.74050213821382
 6 -1.94404704320432 -5.08851932123212  2.85745708270827
 6  2.82982675927593 -0.67941719941994 -1.17591296619662
 6  4.16074939733973 -0.54679852925293 -0.59294182288229
 6  5.17206081348135  0.32505583008301 -1.02474237443744
 6  5.12750016661666  1.17597213351335 -2.33185027612761
 6  6.32792925052505  0.47854666156616 -0.27910459665967
 6  7.58552629152915 -0.00779266116612 -1.04331400010001
 6  8.86325540794079 -0.22474220772077 -0.13814640884088
 6  10.11339223222322 -0.58002510081008 -0.82341873627363
 6  10.07473465966597 -1.97186652155216 -1.44829649114911
 6  11.31116223332333 -0.42206309690969 -0.01905170647065
 6  12.70463763276328 -0.47088360426043 -0.71518205800580
 6  13.88630431823182 -0.19109587278728  0.18168538153815
 6  15.30350569456946 -0.21188380008001 -0.57668071837184
 6  15.71502560476048 -1.70624341014101 -0.79631691149115
 6  16.31093434743474  0.43645803190319  0.34343352805281
 6  17.76574227852785  0.55472359815982 -0.17388566846685
 6  18.73375877537754  1.27169901670167  0.73640600230023
 6  20.18265594539454  1.38156390099010  0.29650925452545
 6  20.29269949884988  2.26947259525953 -0.94950077147715
 6  21.15752362646265  1.91008537793779  1.37023372497250
 1 -3.92898315681568  3.39109749144914  1.65458997999800
 1 -10.07053080478048  3.95175275917592 -0.65512981558156
 1 -10.20977023882388 -2.48503855855586 -1.10319386688669
 1 -2.60078876957696 -0.89334899859986  2.04577181578158
 1 -2.04024366236624  1.68419690829083  1.35165953245324
 1 -2.06959068236824  0.95277076607661  3.57368758215822
 1 -3.12166695289529  2.20985044164416  3.46992155965597
 1 -3.68744972617262  0.76243061076108  3.88349223372337
 1 -2.25304783168317 -1.62365828622862 -0.45889087508751
 1 -2.08454265646565  0.01847393869387 -0.85168026962696
 1 -0.39177627162716  0.48401632513251  1.03654590649065
 1 -0.12819877357736 -1.25518849424943  1.22750562646265
 1 -5.00649281698170  6.34526970207021  0.45038682088209
 1 -6.08920359065907  6.58793859265927  1.99429411861186
 1 -4.60419364816482  5.46640181158116  1.72205588428843
 1 -9.69469696859686  6.03788672477248  0.67550539503950
 1 -8.76724736513651  8.01143973347335  0.04042463576358
 1 -7.17987302390239  7.49458002720272 -0.39322379297930
 1 -12.03333874667467  2.99180648594860 -2.22905920432043
 1 -13.26284149764976  2.00858649674967 -1.65702922662266
 1 -12.48877583898390  3.21536462186219 -0.53045454345434
 1 -12.40604313241324 -1.47724012221222 -1.21396160406041
 1 -13.32661866546655 -0.02081589458946 -1.57579493649365
 1 -13.32628309450945 -1.77886912611261 -3.42977597529753
 1 -12.49882005600560 -0.28117684358436 -3.97116469146915
 1 -11.32814616221622 -1.59476242024202 -3.60461957745775
 1 -9.31241213711371 -4.55073792209221 -1.80042762416242
 1 -7.88897259825983 -5.60760086828683 -0.92536676477648
 1 -9.46623878967897 -4.83906069306931  0.11011275507551
 1 -3.28871900390039 -3.40698228272827 -0.23834048704870
 1 -1.54494558455846 -4.21232961026103  3.35186187318732
 1 -2.70977616501650 -5.65120576297630  3.62153937603760
 1 -1.12395382188219 -5.69347352445245  2.55890259315932
 1  2.80620529162916 -1.76444613451345 -1.58146222252225
 1  2.54057575777578 -0.12372945454545 -2.21036305610561
 1  4.46189541384138 -1.03905191139114  0.26078845504550
 1  4.12979391569157  1.23436453275328 -2.77559090139014
 1  5.32617591599160  2.35128951915192 -2.09318367296730
 1  5.85040036283628  0.65808613881388 -2.89970126942694
 1  6.51747477077708  1.74140036773677 -0.03207570987099
 1  6.15593894189419 -0.07979122802280  0.65305631273127
 1  7.29720346244625 -0.97662873457346 -1.73494762346235
 1  7.74532606360636  0.74679155565557 -1.65324547144714
 1  8.92518861606161  0.73904652115212  0.44628859135914
 1  8.65798362116212 -1.07385574097410  0.66522114071407
 1  10.21198290979098  0.16354112041204 -1.58209203980398
 1  9.22875937233723 -2.04572161646165 -2.14222918411841
 1  11.07643072777278 -2.22217873047305 -1.91221740774077
 1  9.91633910751075 -2.71549317191719 -0.67706979767977
 1  11.31955671787179  0.50064447194719  0.54610657405741
 1  11.32710312001200 -1.04139647774778  0.81996946994699
 1  12.77786352205221 -1.60172703410341 -0.96654498939894
 1  12.61286019201920  0.14025350435043 -1.77908627242724
 1  13.83404490769077  0.78674192969297  0.76113277377738
 1  13.72701879217922 -0.71236367366737  1.15149031873187
 1  15.19408180028003  0.46281614201420 -1.29202886238624
 1  16.48920092109211 -2.18061478737874  0.16286868926893
 1  15.03982151395140 -2.49412760636064 -1.37745546594659
 1  16.65150320892089 -1.66841076967697 -1.59419152795280
 1  15.93294850455045  1.42566163886389  0.64297771877188
 1  16.35556725872587  0.03063666796680  1.38299123082308
 1  18.07088628052805 -0.52668963276328 -0.32399840744074
 1  17.68859894109411  1.13194445294529 -1.20503398729873
 1  18.50002868566857  2.34969686928693  0.98723382428243
 1  18.60449672707271  0.64367797909791  1.74429078067807
 1  20.52850291699170  0.21709814561456  0.18839659005901
 1  19.88311514481448  3.21097008190819 -0.50833110261026
 1  21.34757087098710  2.40469634753475 -1.24976623062306
 1  19.87826866006601  1.84393579587959 -1.68017844114411
 1  21.09164918021802  1.17776708050805  2.21572101370137
 1  22.08009264976498  1.99066759795980  0.84289855605561
 1  20.90063259585959  2.85214889108911  1.63208914011401

