%nproc=4
%Mem=2GB
# td=(NStates=1) CAM-B3LYP/6-31G(d,p) 

TD

0 1
12 -7.11048271757176  0.55818405910591  0.16729477807781
 6 -4.88612749384938 -1.91556366766677  0.48242387728773
 6 -4.89453876017602  2.80528485578558  1.17531098829883
 6 -9.45787037583758  3.08178057745775 -0.46627796079608
 6 -9.56645767336734 -1.73809398439844 -0.76127424242424
 7 -5.06296907850785  0.46435769626963  0.73310083048305
 6 -4.36837444274427 -0.69821044144414  0.76485838863886
 6 -3.00011097229723 -0.41379665176518  1.20873631483148
 6 -3.06769705890589  1.12337346984698  1.67871067746775
 6 -4.40737882458246  1.52920330073007  1.13546980818082
 6 -2.83698148914891  1.24986147344734  3.20970449654966
 6 -1.95818009890989 -0.60885489558956  0.09228855465547
 6 -0.58039629362936 -0.49100733213321  0.68225680858086
 6  0.47403678207821 -0.68539197129713 -0.47442909470947
 8  0.23045359505951 -0.89728113191319 -1.64248352865287
 8  1.71279830483048 -0.47865277207721 -0.10659487958796
 7 -7.26827443594359  2.61739314661466  0.34288944574457
 6 -6.14426155715572  3.40397135103510  0.77980596459646
 6 -6.63019100880088  4.76642727312731  0.80278804330433
 6 -7.88640923632363  4.71956184288429  0.36237314431443
 6 -8.24886543974397  3.47034732603260  0.13680401960196
 6 -5.66683246444644  5.84963605490549  1.25113163836384
 6 -8.84664387678768  5.91067613561356  0.33477349924992
 6 -8.44225342314231  7.14472055635564  0.15759149684969
 7 -9.18228326402640  0.65136161446145 -0.50252195749575
 6 -9.93246490549055  1.87077776037604 -0.68909403360336
 6 -11.21455619851985  1.49584057445745 -1.15403015261526
 6 -11.27567608830883  0.05466934423442 -1.20596986318632
 6 -10.01105098879888 -0.39533802190219 -0.68404770767077
 6 -12.26329457155716  2.45951823272327 -1.47242777367737
 6 -12.45188523422342 -0.83681474367437 -1.78474365156516
 6 -12.31748808080808 -1.05923980918092 -3.23627173257326
 7 -7.24411066316632 -1.43585294689469 -0.11984510321032
 6 -8.23496871917192 -2.26020195969597 -0.48857666356636
 6 -7.72390005750575 -3.61471565446545 -0.52091052005201
 6 -6.41725724772477 -3.46537085258526 -0.28110060216022
 6 -6.14841962016202 -2.09950610511051  0.04499612101210
 6 -8.61687203190319 -4.82725554445445 -0.77240678767877
 6 -5.26163270097010 -4.33054904020402  0.10896939683968
 8 -5.05705706750675 -5.52542519611961  0.14479051385139
 6 -4.17070048004800 -3.19087202130213  0.51265215721572
 6 -3.43164752895290 -3.61111719631963  1.78156933663366
 8 -3.70456411101110 -3.13788702150215  2.88692240754075
 8 -2.71428277617762 -4.70279843234323  1.67918600660066
 6 -2.16502914141414 -5.19168963826383  2.89108044504450
 6  2.80288406500650 -0.56916617431743 -1.05489086398640
 6  4.17608093049305 -0.35688953835384 -0.37851037973797
 6  5.06777038443844  0.43147647214721 -0.88143804400440
 6  5.10681809840984  1.26798133443344 -2.19517660876088
 6  6.42186864446445  0.51331013791379 -0.04459114531453
 6  7.64885262416242 -0.07292917481748 -0.89588925762576
 6  9.06172525492549 -0.06928666216622 -0.14072666686669
 6  10.25609650265027 -0.53032013031303 -0.80418681308131
 6  10.12344953115312 -2.15928526342634 -1.13212487398740
 6  11.50578169526953 -0.32495338593859  0.01140133883388
 6  12.83966113511351 -0.70078659455946 -0.77755829562956
 6  14.13780946874687 -0.21762852605261 -0.00533332033203
 6  15.42368771277128 -0.28814142584258 -0.65649870017002
 6  15.62819692189219 -1.68404118991899 -1.14784206400640
 6  16.48207146114611  0.29164355045505  0.32054123882388
 6  17.92160786508651  0.58559668546855 -0.32979125902590
 6  18.83242864236424  1.25432727952795  0.73828619031903
 6  20.34879255905591  1.33835958055806  0.23287289088909
 6  20.38909913881388  2.21208685668567 -0.92497831923192
 6  21.27543541764177  1.88718308770877  1.40119682128213
 1 -4.30890114861486  3.56220460216022  1.60246476747675
 1 -10.14491824352435  3.84985256915692 -0.68543284588459
 1 -10.23810307210721 -2.44701475617562 -1.03723727122712
 1 -2.85681437213721 -1.03809347304730  2.05957319591959
 1 -2.32043168116812  1.76125461406141  1.29201356785679
 1 -1.96731045434543  0.89007449644964  3.61804201760176
 1 -2.96218100430043  2.21425088168817  3.55765033253325
 1 -3.56486746794679  0.66287065476548  3.70625450995099
 1 -1.98805133203320 -1.50402632303230 -0.47197218321832
 1 -1.96507070927093  0.15823791509151 -0.64222932453245
 1 -0.54115120912091  0.52366028952895  0.91958421032103
 1 -0.43799975367537 -1.34367734313431  1.44686756265627
 1 -5.16616878457846  6.37394256935694  0.41729351155116
 1 -6.22268693899390  6.55668546734673  2.00723541274127
 1 -4.73263649244924  5.21617678907891  1.81196487518752
 1 -9.96217371627163  5.67416035213521  0.48423626812681
 1 -9.09263990439044  7.96643523302330 -0.02949235593559
 1 -7.54204924152415  7.58595916511651  0.08923445284528
 1 -11.81497691049105  3.08283558885889 -2.36410270867087
 1 -13.22909812331233  1.82745838393839 -1.66326985068507
 1 -12.66356331773178  3.31906499189919 -0.82259375737574
 1 -12.36304883298330 -1.91437383558356 -1.31477168506851
 1 -13.30358636223622 -0.12808662166217 -1.46998435543554
 1 -12.96463692989299 -1.64004524372437 -3.75443844154415
 1 -12.42233240724072 -0.06578530443044 -3.97168474347435
 1 -11.28514186178618 -1.29365230923092 -3.60074919041904
 1 -9.12611350725073 -4.83701654995500 -1.71863944534453
 1 -7.89129283028303 -5.68895900410041 -0.63406763486349
 1 -9.39910207600760 -5.08893568056806 -0.14317257345735
 1 -3.22154228622862 -3.27673925842584 -0.19217587058706
 1 -1.62277336733673 -4.46473485078508  3.36464315131513
 1 -2.78236342374238 -5.45509615201520  3.47703492559256
 1 -1.47928935543554 -6.08035221232123  2.66561326422642
 1  2.40875554665467 -1.41714140404040 -1.84543862016202
 1  2.78801050125013  0.17422034043404 -1.90228224802480
 1  4.38798802310231 -1.09001700790079  0.51361373757376
 1  3.93400433673367  1.51087218351835 -2.42134547684768
 1  5.85966926532653  1.95737012721272 -1.96071042564256
 1  5.38786410921092  0.51409173937394 -3.09873117241724
 1  6.57020004330433  1.50322655035504  0.32381987968797
 1  6.34939828782878 -0.16501975087509  0.95092609970997
 1  7.55180892299230 -1.26456752845285 -0.97108123682368
 1  7.71391292229223  0.39487636413641 -1.71112125902590
 1  9.33681977917792  0.88120073657366  0.14127809030903
 1  8.75565338813881 -0.55673402880288  0.84681930053005
 1  10.57502921442144 -0.03153838753875 -1.65429926052605
 1  9.25248174457446 -2.28955599989999 -1.60037499869987
 1  10.80079316401640 -2.54643115571557 -1.84925111111111
 1  10.18414588818882 -2.47400902350235 -0.14029612031203
 1  11.50535529772977  0.77813222072207  0.27626959035904
 1  11.44943535323532 -0.97046938503850  1.03338081108111
 1  13.03577931363136 -1.72232909430943 -1.20446878177818
 1  12.66352525852585  0.00801028002800 -1.81020938473847
 1  14.01757326052605  0.86261951745175  0.09517617811781
 1  14.23780987128713 -0.82143458075808  0.99799496919692
 1  15.43854624672467  0.59193905430543 -1.46458611811181
 1  15.35293729472947 -2.33073979987999 -0.27843544114411
 1  14.95517304910491 -1.77812600620062 -2.19443716411641
 1  16.86717477607761 -1.83035696429643 -1.43804591339134
 1  16.08646385608561  1.22570164286429  0.88647206820682
 1  16.61369307130713 -0.47955435113511  1.04967789948995
 1  18.31927111901190 -0.36882384618462 -0.69400540814081
 1  17.82738281948195  1.07698895739574 -1.13797728162816
 1  18.56131481428143  2.12258415801580  0.99896499739974
 1  18.86393267066707  0.67483109440944  1.66210256185619
 1  20.51166123282328  0.27603403920392 -0.05092734233423
 1  20.08836566986699  3.28900788568857 -0.92139240874087
 1  21.23015912981298  2.25637151505150 -1.28868012201220
 1  19.80252108530853  1.97844924722472 -1.77676810011001
 1  21.09172918821882  1.33151245504550  2.35806524812481
 1  22.33972861336133  1.64326285748575  1.12139640584058
 1  21.05807834043404  2.98360203640364  1.38679461066107

