%nproc=4
%Mem=2GB
# td=(NStates=1) CAM-B3LYP/6-31G(d,p) 

TD

0 1
12 -7.21234290359036  0.65646388708871  0.16169421802180
 6 -4.84929381048105 -1.90299241054105  0.40908654355436
 6 -4.89835914221422  2.83769809710971  1.08546200340034
 6 -9.49565415421542  3.11617401680168 -0.29593092609261
 6 -9.58884991259126 -1.72700287528753 -0.72167028202820
 7 -5.03899668126813  0.46673793429343  0.67074459485949
 6 -4.27492509780978 -0.64521514191419  0.76519842264226
 6 -2.87167812901290 -0.35952122422242  1.09955539673967
 6 -3.00141043024302  1.19562069456946  1.48972177857786
 6 -4.41646973367337  1.50037041744174  1.05191145234523
 6 -2.85599339033903  1.38730521782178  3.02659618571857
 6 -1.93014729562956 -0.52711672177218 -0.09177985218522
 6 -0.56117437143714 -0.36472470387039  0.41253983688369
 6  0.45034441284128 -0.65445887798780 -0.74274592639264
 8  0.21444199389939 -0.94247565136514 -1.85237451775178
 8  1.82910993599360 -0.50137504430443 -0.21998621872187
 7 -7.24915252375238  2.63693510081008  0.38767392419242
 6 -6.04302143314331  3.38699965386539  0.69820780478048
 6 -6.53529151885189  4.76307693809381  0.93242100660066
 6 -7.75633622902290  4.75031491819182  0.36263317031703
 6 -8.23500405360536  3.47019731103110  0.10578091729173
 6 -5.63970975217522  5.84462555385539  1.31010753595360
 6 -8.67918713111311  5.91754682268227  0.32375239713971
 6 -8.35390458825882  7.20597668196820  0.15093083078308
 7 -9.23047808350835  0.68048452675268 -0.30128183348335
 6 -9.89248090709071  1.78872955555556 -0.50210533473347
 6 -11.25341008390839  1.42155314571457 -0.97703245284528
 6 -11.32676119681968  0.06775065236524 -1.16594586078608
 6 -10.00526040974097 -0.40112860096010 -0.55219452235224
 6 -12.32812105420542  2.41280356125613 -1.28125865676568
 6 -12.44586463216322 -0.86619768196820 -1.49769494669467
 6 -12.40873720572057 -1.07910179537954 -3.02400050545054
 7 -7.23216946904690 -1.40552991459146 -0.11207432613261
 6 -8.29535475777578 -2.22761870137014 -0.47338514441444
 6 -7.87663533103310 -3.58506268916892 -0.44366279527953
 6 -6.41081660366037 -3.56933124862486 -0.10800329242924
 6 -6.08678345654565 -2.17434358885889 -0.01330970957096
 6 -8.72902324702470 -4.92397521642164 -0.74282382938294
 6 -5.28138467616762 -4.38651463676368  0.15335383528353
 8 -5.23116447824782 -5.61408406200620  0.16405244004400
 6 -4.08970238023802 -3.26261919601960  0.41334222622262
 6 -3.36421078527853 -3.56047213181318  1.62438361806181
 8 -3.59301295589559 -3.09100233303330  2.77281099639964
 8 -2.52776412431243 -4.62121027352735  1.47114520252025
 6 -1.96707934643464 -5.11962243154315  2.78906024302430
 6  2.83837761436144 -0.77407666536654 -1.22190756565657
 6  4.17333065546555 -0.53605745514551 -0.65020754945495
 6  5.20084369176918  0.30395371987199 -0.96321622182218
 6  4.99901731833183  1.10653518981898 -2.30528761986199
 6  6.49871632923292  0.28141694859486 -0.29530621682168
 6  7.68194593349335 -0.20416229812981 -1.03641331003100
 6  8.90506958935894 -0.05793552705271 -0.12981557575758
 6  10.19283017601760 -0.50749784808481 -0.85145153955396
 6  10.11740892709271 -2.07884721962196 -1.28432009350935
 6  11.45263638073807 -0.31679256985699  0.03000319901990
 6  12.75867303630363 -0.43477999389939 -0.64690523032303
 6  13.98221390919092  0.05277851465147  0.15508272127213
 6  15.37904324832483 -0.24853746544654 -0.44375742604260
 6  15.60838494069407 -1.79027181298130 -0.63887116691669
 6  16.44811806580658  0.43769815591559  0.43038222292229
 6  17.83561926622662  0.53620174597460 -0.03797207710771
 6  18.90065546504650  1.23390523732373  0.82171453315332
 6  20.30279795959596  1.30921666626663  0.28401800540054
 6  20.38194842374237  2.13576922492249 -0.87568338973897
 6  21.21070894499450  1.93476784618462  1.40933763536354
 1 -4.14164442294229  3.50353873557356  1.36342086308631
 1 -10.19022277397740  3.90504808870887 -0.47514181678168
 1 -10.56435569736974 -2.29532958765877 -0.80406395389539
 1 -2.47159585028503 -0.93646331003100  2.01718895749575
 1 -2.27135677367737  1.75534402300230  0.89683404990499
 1 -1.74409813311331  1.18090357935794  3.41816202960296
 1 -3.12977776397640  2.22415187178718  3.44199876737674
 1 -3.51813279447945  0.69955432313231  3.69938382288229
 1 -1.95855838273827 -1.67824374477448 -0.23063804980498
 1 -1.93444764696470  0.03197528882888 -0.98333343494349
 1 -0.32570966496650  0.56975489898990  0.98032028392839
 1 -0.40131608530853 -0.96003897929793  1.20703357925793
 1 -4.98703087078708  6.10962613771377  0.47351913411341
 1 -6.06653132343234  6.69132893169317  1.86930161936194
 1 -4.77821104990499  5.67113228462846  2.25687936663666
 1 -9.83838133703370  5.68086102220222  0.61078892339234
 1 -9.20902154255425  7.73436202570257 -0.00383979067907
 1 -7.34184922152215  7.52659322852285 -0.25571004160416
 1 -12.05614102690269  3.30356766206621 -1.92408870727073
 1 -13.17829304280428  1.77788342644264 -1.66037956165617
 1 -12.63251021242124  2.99246233163316 -0.28202970097010
 1 -12.56767929602960 -1.79422182038204 -0.85299550745074
 1 -13.36825282888289 -0.24337815081508 -1.44953231023102
 1 -13.26760722692269 -1.76541778097810 -3.36138913661366
 1 -12.34493466746675 -0.08696742264226 -3.64865244024402
 1 -11.56725007260726 -1.76633957795780 -3.34263337883788
 1 -9.22942383828383 -4.77888073637364 -1.70473805520552
 1 -8.12735643664366 -5.68370847904790 -0.61618584668467
 1 -9.54481664746475 -5.05892267926793  0.06833857765777
 1 -3.35372550455046 -3.42893447794779 -0.35633228622862
 1 -1.57436852685269 -4.28134651195120  3.46902358935894
 1 -2.93983917131713 -5.31045168756876  3.11793901600160
 1 -1.39763118961896 -5.85083926102610  2.57411411431143
 1  2.74149882098210 -2.01705139503950 -1.60390446674667
 1  2.64505620582058 -0.12698978057806 -1.98745076487649
 1  4.16030525482548 -1.01805981218122  0.36429880608061
 1  4.05388632493249  1.29259035533553 -2.33361670397040
 1  5.55499879827983  2.02205659585959 -2.22998735333533
 1  5.47647297009701  0.71370170037004 -3.36221752105211
 1  6.75285830913091  1.23980020772077 -0.01502400470047
 1  6.24082743074307 -0.22150539943994  0.73668467556756
 1  7.38217195929593 -1.33984505620562 -1.23355748444844
 1  7.94945647664766  0.34927180368037 -1.88970911781178
 1  8.96270236743674  0.97293991049105  0.05887985048505
 1  8.75289311211121 -0.72613096849685  0.72914753335334
 1  10.33700541204120 -0.10238547224722 -1.77559138973897
 1  9.36514301070107 -2.00427747204720 -2.11246620782078
 1  11.00864394909491 -2.22059857245725 -1.69529571557156
 1  10.09079655325533 -2.81237285988599 -0.53201529222922
 1  11.37640240244024  0.88518292579258  0.30486244964497
 1  11.32261267096710 -1.12745508360836  0.78412588558856
 1  12.73649938563856 -1.55175203660366 -1.08034636953695
 1  12.62610151615162 -0.03247376837684 -1.68568693249325
 1  13.71418292149215  1.22142539803980  0.06619327982798
 1  14.02227831813181 -0.10122255955596  1.35419058875888
 1  15.31488388048805  0.28825868626863 -1.38231789128913
 1  15.37888988998900 -2.39214594049405  0.34020642304230
 1  14.97584511631163 -2.03718191179118 -1.38829655005501
 1  16.67988604720472 -1.93003693229323 -1.02652476127613
 1  16.12405761546155  1.48113718641864  0.60953437443744
 1  16.32901460346035 -0.17799419511951  1.46034896659666
 1  18.11425061696170 -0.51952891669167 -0.39636564416442
 1  17.80525060626062  0.96966822532253 -1.12591607550755
 1  18.65334401720172  2.10587248684869  1.02359746064606
 1  18.78432470987099  0.88934254555456  1.80911726332633
 1  20.86591665836583  0.22333876967697  0.04792254265427
 1  20.27445427872787  3.16446543144315 -0.70149041854185
 1  21.23744985888589  2.04148002590259 -1.33968522252225
 1  19.75623645684568  2.00654205650565 -1.77591801510151
 1  20.98056807210721  1.47939724352435  2.28551799339934
 1  22.28353299379938  1.72480101130113  1.31286555275528
 1  20.90792332493249  2.89039271547155  1.88387431863186

