%nproc=4
%Mem=2GB
# td=(NStates=1) CAM-B3LYP/6-31G(d,p) 

TD

0 1
12 -7.18509017831783  0.56110435113511  0.10953900250025
 6 -4.82754163526353 -1.90972308360836  0.47957359225923
 6 -4.83178248454846  2.86833116041604  1.11298475567557
 6 -9.42124671347135  3.10342274167417 -0.40014134713471
 6 -9.55416644424442 -1.72984315931593 -0.80347846284628
 7 -5.24123690529053  0.42802406290629  0.66093361376138
 6 -4.31134874017402 -0.65055567596760  0.78102000480048
 6 -2.94416537773777 -0.34844011611161  1.25051049224922
 6 -3.11236152535254  1.16281741424142  1.73370617701770
 6 -4.43048113481348  1.47910829122912  1.15199146034603
 6 -3.05123291429143  1.36905339263926  3.22792631873187
 6 -1.90201448234824 -0.59325333543354  0.21691101690169
 6 -0.46539479347935 -0.42139037043704  0.70605918881888
 6  0.49289866826683 -0.59615304740474 -0.52291394319432
 8  0.19381993169317 -1.00524192799280 -1.55716499679968
 8  1.79482650765076 -0.25612051885189 -0.15694991509151
 7 -7.18228583708371  2.60585199249925  0.45440059685969
 6 -6.15007213821382  3.35782673657366  0.81656964096410
 6 -6.43643163286329  4.77294792519252  0.86279404390439
 6 -7.82029262466247  4.85781566826683  0.50622752975298
 6 -8.18817937113711  3.47413770507051  0.16584692389239
 6 -5.53304908610861  5.86588768006801  1.21471799699970
 6 -8.71310052245225  5.97780284828483  0.35571559345935
 6 -8.44765396319632  7.20895697999800  0.02099783748375
 7 -9.18150318601860  0.70097657595760 -0.54918662396240
 6 -9.94303596259626  1.74104478707871 -0.64926005020502
 6 -11.29788453135314  1.41182217261726 -1.06619136873687
 6 -11.24889341004100  0.03753763106311 -1.25016428262826
 6 -10.01893177687769 -0.35350383848385 -0.79802910581058
 6 -12.34123236533653  2.43286556745675 -1.40870140104010
 6 -12.42974302000200 -0.83478454065407 -1.67329250645065
 6 -12.36868320032003 -1.07884176937694 -3.23217132253225
 7 -7.21593784588459 -1.35799516111611 -0.15444856355636
 6 -8.29256447874788 -2.24455039453945 -0.55862366826683
 6 -7.83794146164616 -3.64909909280928 -0.58647707670767
 6 -6.43467898989899 -3.47760207570757 -0.12589508160816
 6 -6.17628240644064 -2.05964211871187  0.07339896129613
 6 -8.61900224492449 -4.86643946284628 -0.88744829182918
 6 -5.23935047274728 -4.32241822712271  0.18776727662766
 8 -5.05232659445945 -5.56831948554855  0.13352938773877
 6 -4.11541495149515 -3.28174110821082  0.48879977197720
 6 -3.43999836403640 -3.63933001760176  1.65631681138114
 8 -3.73258691329133 -3.23162639543954  2.86936065136514
 8 -2.51296264416442 -4.62079023152315  1.48801688968897
 6 -1.86238887738774 -5.07903837313731  2.63457479447945
 6  2.78671244784478 -0.50202946064606 -1.16850222512251
 6  4.14190751315132 -0.38638248764876 -0.47042957165717
 6  5.18687229462946  0.27145046954695 -0.87264716491649
 6  5.28846626322632  1.19094363066307 -2.18200529162916
 6  6.47349380698070  0.36027483438344 -0.04913159935994
 6  7.69599733863386 -0.25116699859986 -0.96188585728573
 6  8.92226130853085 -0.25793552705271 -0.03856645084508
 6  10.22744363736374 -0.60198729702970 -0.74808120252025
 6  10.27053423962396 -2.02837217211721 -1.33164482598260
 6  11.43485460256026 -0.33667455805581  0.23051325002500
 6  12.75489265826583 -0.59908642454245 -0.51758229802980
 6  13.96619230703070 -0.21588835203520  0.30005721872187
 6  15.29679502350235 -0.31153376507651 -0.49789283958396
 6  15.82972707490749 -1.68115090089009 -0.91035831563156
 6  16.38700195419542  0.35407979407941  0.39844902960296
 6  17.83711941624162  0.39522764856486 -0.11641992189219
 6  18.77584298379838  1.32658450525052  0.63150551225122
 6  20.19826750655066  1.39357510211021  0.10539014261426
 6  20.17305753465346  2.12752840084008 -1.27467328872887
 6  21.15941381548155  2.02351672107211  1.14684138573857
 1 -4.01859211771177  3.54426280798080  1.48045256625662
 1 -10.09430318201820  4.00429801370137 -0.40392469506951
 1 -10.29755901770177 -2.67829788448845 -1.03731727922792
 1 -2.75719441014101 -1.22057172087209  2.09112635123512
 1 -2.14102374037404  1.69438792739274  1.33057742424243
 1 -2.11550527382738  0.97976346534653  3.80912112551255
 1 -3.21879666586659  2.52229168576858  3.50682525002500
 1 -3.76169715091509  0.87374174187419  3.67970185468547
 1 -1.90252277917792 -1.62154807520752 -0.24567955395539
 1 -2.29001320352035 -0.09669757845785 -0.56835193679368
 1 -0.30713780778078  0.73886180968097  0.75124737663766
 1 -0.15817177087709 -1.05711868726873  1.51997487338734
 1 -4.78103027072707  6.10282545764577  0.50184196639664
 1 -6.15668033833383  6.71800159895990  1.50637532673267
 1 -5.04506773557356  5.45933110451045  2.10696437513751
 1 -9.74721222012201  5.85472840894089  0.58109595409541
 1 -9.14489512991299  8.05943453295330  0.01197179047905
 1 -7.35971100770077  7.43182375157516 -0.47955242584258
 1 -12.10326573937394  3.11287859315932 -2.17474377277728
 1 -13.31601681518152  1.90515615371537 -1.78806232993299
 1 -12.48731569296930  2.90580366576658 -0.49962146014601
 1 -12.61376390449045 -1.79645204340434 -1.26288649654965
 1 -13.34036003960396 -0.51651546454645 -1.39550690769077
 1 -13.33693415961596 -1.48586982618262 -3.68786178387839
 1 -12.13989416341634 -0.07123584948495 -3.63546112111211
 1 -11.53386673427343 -1.63660660466047 -3.55491460696070
 1 -8.80208110401040 -5.19902275057506 -2.04547212861286
 1 -8.06276997799780 -5.89437954615461 -0.70860508860886
 1 -9.68117028282828 -4.88959574657466 -0.36654491069107
 1 -3.48556868886889 -3.28726031053105 -0.35693234623462
 1 -1.31283237323732 -4.28536691399140  3.14225091209121
 1 -2.57995318271827 -5.20466110851085  3.41326854895490
 1 -1.27557898439844 -5.95489966706671  2.52826952985298
 1  2.49104377547755 -1.51791148104810 -1.69033310961096
 1  2.45057675787579  0.32336525492549 -1.85450747054705
 1  4.29150837513751 -1.20826883308331  0.25133750995100
 1  4.29387032333233  1.32245334163416 -2.52362570487049
 1  5.61488478687869  2.24319871007101 -1.50348470307031
 1  6.05731105390539  0.72598292849285 -2.86998829812981
 1  6.75944896819682  1.30498672637264  0.29908740644064
 1  6.24250759875988 -0.23087633653365  0.77538854595460
 1  7.38526226832683 -1.25751682338234 -1.32939706840684
 1  7.86565809680968  0.33755063156316 -1.82858300520052
 1  8.72077817501750  0.79151176767677  0.55116907940794
 1  8.64802262506251 -0.92142049744974  0.84925954455446
 1  10.05087679917992  0.09671443774377 -1.46978080868087
 1  9.34843133953395 -2.12521956625663 -2.01679664086409
 1  11.10225331003100 -2.21098761136114 -1.97912409840984
 1  9.94277175077508 -2.77292891549155 -0.42566465716572
 1  11.17646240844084  0.68661306880688  0.51278324172417
 1  11.32373278297830 -1.23644598269827  1.07777525052505
 1  12.95657139283928 -1.66059292069207 -0.76919525442544
 1  12.60610951695170 -0.11518203920392 -1.51788015181518
 1  13.94438594179418  0.93314657015702  0.73495015551555
 1  14.16995308560856 -0.85338777607761  1.14030920062006
 1  15.17927031913191  0.21205106550655 -1.50059971947195
 1  15.56756875787579 -2.25438216411641 -0.05784338193819
 1  14.92430996279628 -2.05447364096410 -1.61020874127413
 1  16.65747380598060 -1.58519244784478 -1.45430753955396
 1  16.23562877257726  1.40516958965897  0.68651207220722
 1  16.48875057705771 -0.23197959365937  1.44760769246925
 1  18.29004819671967 -0.45985294909491 -0.50876688428843
 1  17.69058914011401  0.89298055655566 -1.21666515041504
 1  18.47533621642164  2.33021492109211  0.80996609750975
 1  19.16628290569057  0.65277888918892  1.54500085168517
 1  20.54274434113411  0.40102653845385 -0.09442169176918
 1  19.77918475177518  3.19607859275928 -1.22698296779678
 1  21.27002311621162  2.26425230313031 -1.52116337033703
 1  19.72306313951395  1.68662006430643 -2.11734215751575
 1  21.45107512281228  1.17197650145014  1.91999144074407
 1  22.11108574907491  2.18605713691369  0.62299656585659
 1  20.80806333893389  2.95984966116612  1.48217414861486

