%nproc=4
%Mem=2GB
# td=(NStates=1) CAM-B3LYP/6-31G(d,p) 

TD

0 1
12 -7.19683135243524  0.62564080478048  0.18822687128713
 6 -4.93329221032103 -1.97825993729373  0.54727036193619
 6 -4.74785409170917  2.77623195049505  1.18442189938994
 6 -9.43129771857186  3.13454585398540 -0.43499483248325
 6 -9.49019004660466 -1.71797197219722 -0.83214132913291
 7 -5.10114289588959  0.37413867436744  0.79835735613561
 6 -4.40587819311931 -0.73145376577658  0.76423832663266
 6 -2.96218717991799 -0.52126739883988  1.19742518371837
 6 -3.08276856605661  1.11464259675968  1.67052985938594
 6 -4.42648073477348  1.50656103650365  1.22021828302830
 6 -3.03708149914991  1.17701418871887  3.17142066816682
 6 -1.95804008490849 -0.59403341344134  0.06629595539554
 6 -0.58408666266627 -0.57579581098110  0.56748533143314
 6  0.50023940234023 -0.67242067416742 -0.61840349214921
 8  0.27376792649265 -1.04886629042904 -1.68639792009201
 8  1.74678170317032 -0.36936184298430 -0.12492671277128
 7 -7.04729233773377  2.57444885218522  0.39355451225122
 6 -6.09101623262326  3.39059001290129  0.80427841184118
 6 -6.42068005770577  4.68814944534453  0.77123488798880
 6 -7.72281287668767  4.84011389808981  0.33314022102210
 6 -8.11393194639464  3.52560285158516  0.02662300150015
 6 -5.59291507270727  5.82247333863386  1.38282480768077
 6 -8.60593980638064  5.96005107310731  0.21480150205021
 6 -8.21372056985699  7.33737982228223  0.09867560526053
 7 -9.14841987768777  0.62343882218222 -0.50977268256826
 6 -9.93237489648965  1.81644232683268 -0.68213333753375
 6 -11.25369011191119  1.49206019641964 -1.20386513611361
 6 -11.27442596329633  0.06450032733273 -1.22941220742074
 6 -9.99015889958996 -0.40996948504850 -0.85203450635064
 6 -12.35080332243224  2.40099238013801 -1.35393592449245
 6 -12.31346139183918 -0.82470353255326 -1.72335751295130
 6 -12.16088242024203 -1.16024991019102 -3.32862096749675
 7 -7.22694894699470 -1.42688204980498 -0.07741085978598
 6 -8.32724794709471 -2.25015095459546 -0.42820062596260
 6 -7.86638430593059 -3.67895207810781 -0.36080450945094
 6 -6.56133165516552 -3.50880519601960 -0.06382887498750
 6 -6.21946672487249 -2.19905606010601  0.19091071247125
 6 -8.75814615931593 -4.88299111801180 -0.62029157615762
 6 -5.29914645234523 -4.33434942024202  0.12058055795580
 8 -5.19898125992599 -5.49195184878488  0.00285632043204
 6 -4.12622603260326 -3.30149308340834  0.48250914291429
 6 -3.55055942014201 -3.65563164776478  1.79441062076208
 8 -3.73395705030503 -3.12785601840184  2.84499821512151
 8 -2.65913726162616 -4.68404655715572  1.63826191419142
 6 -2.12181481998200 -5.22774324362436  2.93471480848085
 6  2.83374715131513 -0.65311456915692 -1.01162653755376
 6  4.10769409180918 -0.40165401480148 -0.34988751745174
 6  5.06006961436144  0.43964728922892 -0.90275017521752
 6  4.89740715731573  1.38012254855486 -2.00772786388639
 6  6.46191264886489  0.39737854475448 -0.25868255445545
 6  7.65647338623862 -0.13194507640764 -1.01818148684868
 6  8.97045612801280 -0.08946868036804 -0.24261685588559
 6  10.28858975197520 -0.41980907920792 -0.90255665006501
 6  10.19491667786779 -1.88358769366937 -1.59336099759976
 6  11.42719383648365 -0.19391028162816  0.06338653735374
 6  12.77789495849585 -0.34022053795380 -0.77749828962896
 6  14.01132682048205  0.07746098289829  0.13833104610461
 6  15.40532587658766 -0.13160577227723 -0.53796684698470
 6  15.67144124632463 -1.50759354515452 -1.02123940374037
 6  16.41415466946695  0.41335572167217  0.44251343604360
 6  17.86685238953896  0.34795292109211 -0.13891217111711
 6  18.88797419691969  1.13433528032803  0.76120848254825
 6  20.31730941074107  1.18606435103510  0.25513511711171
 6  20.52043227212721  1.84389003700370 -1.08645446684668
 6  21.24364223832383  1.92353672307231  1.40497719931993
 1 -4.16047630613061  3.57021540324032  1.59608412941294
 1 -10.34421817351735  3.79708729262926 -0.65575987858786
 1 -10.23726298809881 -2.60028008270827 -0.97416096359636
 1 -2.66170486118612 -1.05956562026203  2.15755299389939
 1 -2.24619425742574  1.81597008560856  1.39596396289629
 1 -1.94970869416942  0.84473996299630  3.44435464886489
 1 -3.01986677287729  2.24708416501650  3.47657222472247
 1 -3.86391737293729  0.80648501620162  3.86480036453645
 1 -2.38332085898590 -1.43430935133513 -0.54703968996900
 1 -2.09396359855986  0.40410250155015 -0.78999410101010
 1 -0.37221431543154  0.39057698119812  1.09235148704871
 1 -0.34041999569957 -1.38631160656066  1.22716559245925
 1 -4.97919008670867  6.25113028812881  0.51367314951495
 1 -6.25764043434343  6.62309210801080  1.77153184238424
 1 -4.96449967876788  5.48923409480948  2.28446212491249
 1 -9.64958245714571  5.81470440654066  0.27137498199820
 1 -9.11074171457146  7.79736832633263 -0.01867127382738
 1 -7.22301733833383  7.71930249944995  0.01252678207821
 1 -12.32882829562956  3.26452375767577 -2.18368466686669
 1 -13.38920413391339  2.00131576967697 -1.47574109780978
 1 -12.22835979737974  3.07510059545955 -0.40479197719772
 1 -12.42213474157416 -1.82062446064606 -1.39612982088209
 1 -13.38184418801880 -0.36697051005100 -1.79869722672267
 1 -12.72313277947795 -1.87269850905090 -3.77360035773577
 1 -12.22377255125513 -0.16090481638164 -3.87247482248225
 1 -11.14990833843384 -1.53040598459846 -3.46885600110011
 1 -9.30858175407541 -4.82925577387739 -1.50308789018902
 1 -8.15762946394640 -5.75012512071207 -0.43500772887289
 1 -9.65628779457946 -4.86720350735073  0.11293303710371
 1 -3.43355348734874 -3.19735131963196 -0.52248890189019
 1 -1.60457154715472 -4.41297967526753  3.40502718971897
 1 -3.20024521192119 -5.35287592999300  3.55639286138614
 1 -1.59089051555155 -6.15316949404941  2.75605230813081
 1  2.70088475957596 -1.72500219011901 -1.27788186448645
 1  2.60218191839184 -0.29923700530053 -2.04444646444644
 1  4.44512373667367 -1.00122812901290  0.56917929412941
 1  3.77579851615162  1.59989108540854 -2.42802614491449
 1  5.36656995539554  2.46163055325533 -1.73937829242924
 1  5.40117544034403  0.97978830903090 -2.83101440074007
 1  6.72890591389139  1.29606583428343 -0.01255375767577
 1  6.49968331633163 -0.41327457635764  0.73118412551255
 1  7.46158990109011 -1.28857992969297 -1.15890001870187
 1  7.68994052505251  0.19770664716472 -2.02736288318832
 1  8.90687678487849  0.90167278377838  0.23367733023302
 1  9.00901872467247 -0.79965832123212  0.48870348894889
 1  10.40086179767977  0.34423919021902 -1.75226905750575
 1  9.15457195359536 -2.08376542084208 -1.95263022422242
 1  11.05503858855886 -2.07821433403340 -2.24673085908591
 1  10.29486696029603 -2.66491811441144 -0.60764285498550
 1  11.32241700390039  0.82460686818682  0.74152611601160
 1  11.18608901860186 -0.92045438353835  0.76516398939894
 1  12.85597133283328 -1.39472633403340 -0.84097243214321
 1  12.69477838383838  0.15083456245625 -1.65267363116312
 1  13.89490099329933  1.17139039453945  0.51033769426943
 1  14.10721681198120 -0.73239567686769  0.99732490219022
 1  15.46895928802880  0.46219608000800 -1.60417007650765
 1  15.74025602660266 -2.17238396429643 -0.17922552015202
 1  14.99949748154815 -1.73544173777378 -1.82827054745475
 1  16.66462452105211 -1.37368129672967 -1.33321543034303
 1  16.12003721342134  1.72169124182418  0.42929635063506
 1  16.30756245824583  0.03969757405741  1.43614654635464
 1  18.37769696159616 -0.72483944774477 -0.48942495009501
 1  17.55707578877888  0.85294655315532 -1.09669315321532
 1  18.46073475627563  2.26113801340134  0.99835493639364
 1  19.08729500690069  0.87057066836684  1.81553790539054
 1  20.79156922362236  0.10279671547155  0.07459520992099
 1  20.10934776807681  2.94810379527953 -0.81641191069107
 1  21.60996711061106  1.87850372827283 -1.31567282128213
 1  19.83071390459046  1.45850725302530 -1.72398282158216
 1  20.95331534683469  1.57953725752575  2.32756219781978
 1  22.34621926242624  1.88063659485949  1.23039730593059
 1  20.92447498009801  2.98459213541354  1.51622755395540

