%nproc=4
%Mem=2GB
# td=(NStates=1) CAM-B3LYP/6-31G(d,p) 

TD

0 1
12 -7.18809047834783  0.54182242294229  0.20206825542554
 6 -4.80327920902090 -1.95626773807381  0.54644027892789
 6 -4.84718402470247  2.83440776807681  1.22440589778978
 6 -9.36418100690069  3.17787018641864 -0.33514484748475
 6 -9.51265229282928 -1.65319549454946 -0.98159627462746
 7 -5.09218199979998  0.40216147664766  0.71834935533553
 6 -4.32117972327233 -0.74989560996100  0.75674757755776
 6 -2.85876683788379 -0.43615888798880  1.17371281248125
 6 -3.05207549674968  1.07645877837784  1.69811261766177
 6 -4.39306739343934  1.51666204660466  1.29352561376138
 6 -2.85379317031703  1.28194468176818  3.19811333743374
 6 -1.81850613151315 -0.65386939703970  0.16300562636264
 6 -0.32029028302830 -0.57221545294529  0.48635721862186
 6  0.53489286768677 -0.82910634273427 -0.56170782258226
 8  0.26416696639664 -1.10344174797480 -1.66413569386939
 8  1.82947997299730 -0.46118102490249 -0.24756897699770
 7 -7.05509311781178  2.62268367566757  0.29727488428843
 6 -5.98228535953595  3.34625557945795  0.70578856285629
 6 -6.34625261496150  4.72550318071807  0.97076484098410
 6 -7.65685628102810  4.88971885858586  0.46154306130613
 6 -8.16923747694769  3.57121741304130  0.13034337353735
 6 -5.45358113931393  5.84356544784478  1.41533805900590
 6 -8.52813202560256  5.98596366436644  0.31491151305130
 6 -8.17597679547955  7.18580466476648 -0.04931919421942
 7 -9.16056109180918  0.64556103440344 -0.52772447774777
 6 -9.77739939893989  1.85974665726573 -0.65903102730273
 6 -11.10855559845985  1.53459444984498 -1.06951170077008
 6 -11.21184970567057  0.18826270357036 -1.38440770697070
 6 -9.94551443514351 -0.33486197429743 -0.89139844274427
 6 -12.27893613571357  2.47448972987299 -1.30109063996400
 6 -12.33248329402940 -0.76559762196220 -1.73497867506751
 6 -12.28568490049005 -1.20365425062506 -3.25428353375338
 7 -7.16465271737174 -1.36104546614661 -0.22248536723672
 6 -8.27114233653365 -2.17567350685068 -0.50343814971497
 6 -7.86828449594959 -3.58907309020902 -0.41004943394339
 6 -6.54084960696070 -3.59460377587759 -0.11019351145115
 6 -6.18853363156316 -2.23348950345035  0.09096071747175
 6 -8.63779412411241 -4.81565438433843 -0.80765031203120
 6 -5.30980751845185 -4.44432041734173  0.24551305120512
 8 -5.18335969776978 -5.61248390199020  0.20136617141714
 6 -4.13339674967497 -3.35169810391039  0.57697858985899
 6 -3.50762512671267 -3.65365144974497  1.87576875657566
 8 -3.78343199779978 -3.11372460526053  2.94650836613661
 8 -2.67674902280228 -4.78791694419442  1.73752184018402
 6 -2.10421305980598 -5.09378984828483  2.98496983398340
 6  2.76043982058206 -0.74862412011201 -1.29478485338534
 6  4.18033135553555 -0.63043689308931 -0.66825935463546
 6  5.03470707810781  0.38621194569457 -1.00839073927393
 6  4.96223363996400  1.31690622692269 -2.23626071717172
 6  6.33530998859886  0.40487929482948 -0.24608129432943
 6  7.51468920782078 -0.18613049494950 -0.98723839253925
 6  8.84903398579858 -0.12350208370837 -0.16368896309631
 6  10.11611250425043 -0.43550064836484 -1.00889728412841
 6  10.11232841904190 -1.91033036793679 -1.46723838533853
 6  11.39225034213421 -0.13608449904991 -0.10403020432043
 6  12.70160732973297 -0.37677419331933 -0.84611515131513
 6  13.92562825062506 -0.06640340354035  0.05093230623062
 6  15.29631497549755 -0.20722333403340 -0.49517256755676
 6  15.59060316251625 -1.63521630743074 -0.94993227302730
 6  16.37331058505850  0.35538992509251  0.42232141684168
 6  17.75372107640764  0.58801692749275 -0.11909018891889
 6  18.64650004950495  1.31020286708671  0.88832119381938
 6  20.12064974477448  1.39311505610561  0.36671627522752
 6  20.21647187608761  2.08924457245725 -0.97718353975398
 6  21.06281415551555  1.88619298869887  1.42942964456446
 1 -4.20011026952695  3.61584996669667  1.67762228322832
 1 -9.97525127682768  3.95727331123112 -0.39869417201720
 1 -10.19697895969597 -2.64946500120012 -1.36689023652365
 1 -2.44094278497850 -0.97891755545555  2.14928216681668
 1 -2.40761039903990  1.61636012461246  1.24364873137314
 1 -1.90309403270327  0.93611910091009  3.42268248164817
 1 -2.98543332953295  2.19781923852385  3.66240080758076
 1 -3.45684666586659  0.46547091479148  3.77486137063706
 1 -2.00239276617662 -1.73307922832283 -0.18529351535153
 1 -1.91034523672367 -0.05357326602660 -0.79132423402340
 1 -0.46003309730973  0.54928285178518  0.73905615751575
 1 -0.18585453915392 -1.03555653105310  1.47901077697770
 1 -4.77402957065707  6.30342551765177  0.77401918411841
 1 -5.89032370267027  6.69284908370837  1.65811050025003
 1 -4.66661989078908  5.35672084348435  2.16890056875688
 1 -9.69032653155315  5.93758669476948  0.67624546904691
 1 -8.86015665606561  7.98964755425543 -0.03881328802880
 1 -7.06456149274927  7.43931450065006 -0.18924339493949
 1 -12.00700611341134  3.52055936123612 -1.78408470687069
 1 -13.23127834133413  2.03077871597160 -1.87090061376138
 1 -12.64122108350835  2.95436852225223 -0.37777927592759
 1 -12.16282881098110 -1.75632803100310 -1.12021222912291
 1 -13.26539254285429 -0.21278509150915 -1.51271862886289
 1 -13.15239570577058 -1.80312155135514 -3.47340033773377
 1 -12.30467064106411  0.01494276837684 -3.74981255625563
 1 -11.33699704730473 -1.52830577457746 -3.45847496299630
 1 -9.30808170407041 -4.79301214951495 -1.87385496689669
 1 -8.03524722572257 -5.72023213141314 -0.97485171327133
 1 -9.42514468026803 -5.29222600960096  0.05020676447645
 1 -3.23990412241224 -3.51245282978298 -0.26674332733273
 1 -1.53346443644364 -4.24739311661166  3.35275196219622
 1 -2.92740792819282 -5.45035567796780  3.67582480458046
 1 -1.31847327382738 -5.93023720082008  2.77118382128213
 1  2.61162583368337 -1.81202089198920 -1.65724980128013
 1  2.50602230243024 -0.14773185478548 -2.19458147794779
 1  4.41940116441644 -1.35450345654565  0.22506488268827
 1  3.97494843114311  1.02858395469547 -2.73451679397940
 1  5.27138043644364  2.29401379157916 -1.91625598019802
 1  5.77991331413141  1.03738406860686 -3.06259755905591
 1  6.70700372367237  1.48456468416842 -0.03122562486249
 1  6.24570791879188  0.09241599269927  0.85245625272527
 1  7.25360910301030 -1.30187125882588 -1.19601373007301
 1  7.66011754275428  0.17978485498550 -1.97858800570057
 1  8.88685478267827  0.96493911041104  0.08356231873187
 1  8.88687651045105 -0.61909026442644  0.83118773737374
 1  10.06565827732773  0.26840160646065 -1.94003783438344
 1  9.18740523692369 -2.00540758505851 -2.08560352155216
 1  10.91930501520152 -2.06817332993299 -2.06844303030303
 1  10.39277675127513 -2.79962158475848 -0.52856494719472
 1  11.34422918511851  0.97159156665667  0.06912887628763
 1  11.36977738743874 -0.66665900400040  0.98178565156516
 1  12.52559829552955 -1.35077193859386 -1.34832316721672
 1  12.83281218721872  0.26873635263526 -1.75249361316132
 1  13.86805830903090  1.08680193569357  0.44554121462146
 1  13.82817890819082 -0.60593303060306  1.10565573527353
 1  15.24074646674667  0.29739960036004 -1.38183784328433
 1  15.52473447444745 -2.27175390129013 -0.02210980858086
 1  14.83505103690369 -2.29079727332733 -1.62276999739974
 1  16.64101215981598 -1.58467239583958 -1.42639474827483
 1  15.89683489318932  1.23262233493349  0.78668208920892
 1  16.38385008700870 -0.17664406010601  1.53108604030403
 1  18.25752494439444 -0.40108707250725 -0.32593860146015
 1  17.79867994919492  1.10466172467247 -0.95133861776178
 1  18.45990467326732  2.48082998259826  1.06938203910391
 1  18.72030830823082  0.82752636393639  1.84630098169817
 1  20.40437050375037  0.38741517731773  0.40343809420942
 1  19.91147798109811  3.14168315321532 -0.81342161166117
 1  21.44507062096210  2.14300017791779 -1.22808406240624
 1  19.77688852205220  1.65000640294029 -1.75155557885789
 1  20.97166718201820  1.16829613341334  2.31968140974097
 1  21.95562020252025  1.77401593279328  1.18668293449345
 1  20.63259579217922  2.86905058125813  1.57712364356436

