%nproc=4
%Mem=2GB
# td=(NStates=1) CAM-B3LYP/6-31G(d,p) 

TD

0 1
12 -7.07616928622862  0.65784402510251  0.05185323392339
 6 -4.86467534863486 -1.97386949824983  0.50432606750675
 6 -4.80007931423142  2.82863719101910  1.11501495869587
 6 -9.45462005080508  3.12484488388839 -0.31584291729173
 6 -9.49507053465346 -1.74238441344134 -0.85607372237224
 7 -5.02981576317632  0.43037429792979  0.63167068746875
 6 -4.34856246154615 -0.77172779317932  0.75459736253625
 6 -2.89093005420542 -0.40130540264026  1.11734717591759
 6 -3.01399168836884  1.13421455395540  1.54328713511351
 6 -4.29877796449645  1.44040442084208  1.06049231043104
 6 -2.76981477247725  1.41998848614861  3.02638616471647
 6 -1.90419470037004 -0.71157516761676  0.07495682148215
 6 -0.46525477947795 -0.51112934433443  0.44550313321332
 6  0.53979335773577 -0.80742417451745 -0.64915656745675
 8  0.27648819851985 -1.09800120392039 -1.81557083738374
 8  1.78294531953195 -0.53775868266827 -0.09431365146515
 7 -7.05558316681668  2.63073448074807  0.35156031283128
 6 -6.02149928092809  3.35514646854686  0.75753373737374
 6 -6.46086407610761  4.77927855825583  0.84328209270927
 6 -7.73959455485549  4.72958284498450  0.45734264126413
 6 -8.11485203840384  3.45366565786579  0.13840417961796
 6 -5.47349313051305  5.83074416571657  1.31273779897990
 6 -8.58823803620362  5.97895296329633  0.36040606250625
 6 -8.22496169396940  7.26553263756376  0.17963370107011
 7 -9.11260629632963  0.79306578487849 -0.52980468576858
 6 -9.89179083808381  1.87684836743674 -0.59488461266127
 6 -11.21483622652265  1.48012900330033 -1.06269101870187
 6 -11.26312483318332  0.09871374867487 -1.22768203440344
 6 -9.91319120282028 -0.27990647874787 -0.84128343124312
 6 -12.23872211431143  2.51191347224722 -1.42426295719572
 6 -12.35003504920492 -0.79042010421042 -1.67088226542654
 6 -12.50114644664466 -1.13076696189619 -3.18184629002900
 7 -7.24914116621662 -1.30236959855986 -0.11616473517352
 6 -8.24986020832083 -2.22137807730773 -0.51155896179618
 6 -7.82034970247025 -3.58096227912791 -0.49140756975698
 6 -6.52912843484348 -3.57585190069007  0.03932144004400
 6 -6.22469724792479 -2.12921907640764  0.17070869226923
 6 -8.49496984168417 -4.83056587548755 -0.97079662666267
 6 -5.36013255095510 -4.38277426272627  0.22535103500350
 8 -5.22469383118312 -5.56757941154115  0.18162419721972
 6 -4.19984339433943 -3.30773370747075  0.55233612561256
 6 -3.45933029722972 -3.73622970757076  1.87966914661466
 8 -3.51407506210621 -3.15892912571257  2.89756347164717
 8 -2.65970731863186 -4.79957811031103  1.68961704970497
 6 -1.90138277677768 -5.29000947024702  2.76978831583158
 6  2.87716149274927 -0.74459371707171 -1.07013238813881
 6  4.13901722412241 -0.59480332973297 -0.47777030573057
 6  5.03182679007901  0.35047837233723 -0.86782668286829
 6  4.96421383798380  1.23659819611961 -2.11908900000000
 6  6.32989944754475  0.48509731663166 -0.10657734393439
 6  7.55542328122812 -0.14787666956696 -0.82614228292829
 6  8.83173225562556  0.01809207570757 -0.15767836203620
 6  10.13363425642564 -0.41320841914191 -0.81238763316332
 6  10.13193037923792 -1.78835817071707 -1.44127578907891
 6  11.30804192129213 -0.19986087668767  0.16696689538954
 6  12.61935910491049 -0.49665618151815 -0.60047058685869
 6  13.94404009180918 -0.14243100630063  0.29704691769177
 6  15.30144548854886 -0.23778639033903 -0.33020607090709
 6  15.57114121632163 -1.69514230003000 -0.82167944774477
 6  16.29458271227123  0.41242562866287  0.48837802250225
 6  17.70037574187419  0.51486961276128 -0.19899817971797
 6  18.66789218871887  1.42132397919792  0.60061242294229
 6  20.09778745854586  1.32674841944194  0.10453005660566
 6  20.34156438533853  2.16610225822582 -1.14368018941894
 6  21.16100397449745  1.68839320872087  1.24277097869787
 1 -4.09600985948595  3.51995037673767  1.50888540954095
 1 -10.18828257995800  3.85925350925093 -0.36401070367037
 1 -10.24542380418042 -2.40399045374537 -0.99055260276028
 1 -2.57162585328533 -1.04099376307631  2.14417165576558
 1 -2.29246888488849  1.75050353895390  0.92635700220022
 1 -1.82094581788179  1.16706219521952  3.44610482388239
 1 -2.78587337353735  2.54731418801880  3.42187675517552
 1 -3.53525450665066  0.79476384408441  3.59802368686869
 1 -1.88787131403140 -1.91964788518852 -0.01620660666067
 1 -2.16648085028503 -0.30732864156416 -0.98115321692169
 1 -0.17056415041504  0.54739266276628  0.84155640754075
 1 -0.14220017371737 -1.09174214961496  1.13728660456046
 1 -5.04800696839684  6.28748392349235  0.49108089028903
 1 -6.15763043334333  6.67204700350035  1.71878656785679
 1 -4.90377360616062  5.30450562196220  2.19994367306731
 1 -9.58634613351335  5.70358329442944  0.66925476997700
 1 -8.92509314971497  8.02418100760076 -0.06070547724772
 1 -7.08120315691569  7.35174574377438  0.13061859125913
 1 -11.93574898769877  3.16991429672967 -2.30634693309331
 1 -13.27540275377538  2.02852849094909 -1.50171369506951
 1 -12.26684364576458  2.91444452985299 -0.46122762076208
 1 -12.34516704480448 -1.69293169136914 -1.11494170207021
 1 -13.28342434603460 -0.20746455945595 -1.47270462746275
 1 -13.31405187138714 -1.82228346754675 -3.53947694539454
 1 -12.77263743774378 -0.31521024692469 -3.96749432443244
 1 -11.67746109370937 -1.62410535453545 -3.46343545904590
 1 -8.73051394729473 -4.70512336063606 -2.11742932433243
 1 -7.92031573257326 -5.74287439563956 -0.67523175127513
 1 -9.47921008680868 -4.86673346034604 -0.46656491269127
 1 -3.56487661966197 -3.59092067656766 -0.13241989498950
 1 -1.12203329332933 -4.47534591189119  3.10158684568457
 1 -2.57841302870287 -5.45504614701470  3.59640686278628
 1 -1.44182560906091 -6.22527670477048  2.44281098399840
 1  2.71169584068407 -1.85051474137414 -1.42033610991099
 1  2.75730743094309 -0.11800888248825 -1.97112913271327
 1  4.34820404470447 -1.37340534673467  0.31281365756576
 1  3.99304024032403  1.36331742804280 -2.63776711901190
 1  5.24134743314331  2.26047043724372 -1.81810616521652
 1  5.52999832263226  0.84423475367537 -2.93812511181118
 1  6.70124314761476  1.57026325402540 -0.19071157345735
 1  6.20173352135213 -0.01271452035204  0.90285129222922
 1  7.24635837793779 -1.20822189388939 -0.96318044674467
 1  7.61487301830183  0.27581445794579 -1.90118026492649
 1  8.86611270847085  1.14452706920692  0.32852681518152
 1  8.92881070387039 -0.69529788518852  0.78984360296030
 1  10.16554826632663  0.47123188948895 -1.54406823742374
 1  9.22555905230523 -1.95738278257826 -1.99687464866487
 1  11.01695478017802 -1.85682219481948 -2.17314350035003
 1  10.25038251185119 -2.54498612121212 -0.61182327302730
 1  11.32638740094009  0.84494890239024  0.51687365076508
 1  11.09609001870187 -0.74496683478348  1.00777825082508
 1  12.69894563026303 -1.47172403380338 -1.12895123002300
 1  12.58315722172217  0.28611809080908 -1.42146050985098
 1  13.67297880108011  0.85467872337234  0.47739439993999
 1  13.73771986228623 -0.77236967426743  1.19771494119412
 1  15.28717110921092  0.26316617701770 -1.35575523502350
 1  15.76343834483449 -2.44458118401840 -0.15087268486849
 1  14.71104863666367 -2.00798899249925 -1.44652237263726
 1  16.53227128572857 -1.51475540414041 -1.40921303010301
 1  15.83358856855685  1.57294636733673  0.56663008400840
 1  16.31227292929293 -0.18615501120112  1.49754268596860
 1  18.17724691659166 -0.38496546034603 -0.38808481608161
 1  17.69840992219222  0.72467372587259 -1.22050553445345
 1  18.30981966476648  2.30754265386539  0.83550865176518
 1  18.80364664206420  1.00356396769677  1.61034738633863
 1  20.53018308500850  0.27120355615562 -0.18496074567457
 1  20.11808864216422  3.20732971787179 -0.61548181768177
 1  21.33678979287929  2.21329720762076 -1.68270952495250
 1  19.38233906710671  2.20429183148315 -1.73939436273627
 1  21.06382639793980  1.20593989778978  2.19261870347035
 1  22.27426206670667  1.58722725392539  0.89431369756976
 1  21.02042457505751  2.79647332353235  1.45127105830583

