%nproc=4
%Mem=2GB
# td=(NStates=1) CAM-B3LYP/6-31G(d,p) 

TD

0 1
12 -7.07692936223622  0.56472471317132  0.12362041064106
 6 -4.80726960806081 -1.98984109540954  0.43228886378638
 6 -4.82648195449545  2.85366969426943  1.18930238743874
 6 -9.37730231903190  3.05707810721072 -0.33393472647265
 6 -9.62603363096310 -1.73014318931893 -0.77825594059406
 7 -5.13165594719472  0.41906316681668  0.81709923032303
 6 -4.33318092339234 -0.75567618801880  0.88962086488649
 6 -2.87149811101110 -0.35496076817682  1.17172261346135
 6 -3.05346563576358  1.08106923942394  1.67486029242924
 6 -4.41812989968997  1.51757213761376  1.23232949414942
 6 -2.88291608260826  1.28305479277928  3.24816834293429
 6 -1.94581886278628 -0.59797380748075 -0.00408108230823
 6 -0.52821107510751 -0.46654488588859  0.52704128702870
 6  0.42572195059506 -0.65418885098510 -0.60639229102910
 8  0.32478302800280 -1.09947135093509 -1.67103638393839
 8  1.66299332433243 -0.47944285108511 -0.13413763386339
 7 -7.01520912941294  2.59508091539154  0.39402455925593
 6 -6.03655078607861  3.34071502540254  0.88292627662766
 6 -6.41822981268127  4.77566819721972  0.87980574507451
 6 -7.66007660306031  4.85829571627163  0.40638754575458
 6 -8.06671722492249  3.53241353265327  0.11272161136114
 6 -5.50505628682868  5.85745683698370  1.40145667086709
 6 -8.52352156455646  6.06092116011601  0.23606362826283
 6 -8.09051824962496  7.21388747304731 -0.02259652195220
 7 -9.05144017971797  0.63691016931693 -0.50345205050505
 6 -9.84552621162116  1.80754143674367 -0.69244436863686
 6 -11.22575731863186  1.43572456285629 -1.08783353295330
 6 -11.24548306900690  0.12444632193219 -1.26455572177218
 6 -9.97693757745775 -0.41111960006001 -0.76616591949195
 6 -12.33293153525353  2.42072435333533 -1.28675920682068
 6 -12.37979802550255 -0.74797585978598 -1.72193737093709
 6 -12.30796712871287 -0.98175206040604 -3.25758386378638
 7 -7.22577882998300 -1.36141550315032 -0.06584970367037
 6 -8.26319154145415 -2.25176111561156 -0.55733353925393
 6 -7.80280794829483 -3.62529671257126 -0.65475390439044
 6 -6.46113163516352 -3.57706202170217 -0.26889938203820
 6 -6.09746452465247 -2.23442959745975 -0.02477085568557
 6 -8.57950829552955 -4.86820963986399 -1.07027657465747
 6 -5.37348388608861 -4.39112509780978  0.18158665856586
 8 -5.33405476727673 -5.61757441104110  0.26902293709371
 6 -4.20115352535253 -3.34826776087609  0.51772266426643
 6 -3.55569993419342 -3.66122220682068  1.81928310801080
 8 -3.82720637523752 -3.00816404920492  2.87553126842684
 8 -2.72202355025503 -4.64170232273227  1.73985207320732
 6 -2.20403304180418 -5.15669613891389  2.97331866886689
 6  2.81478525512551 -0.68534779247925 -1.12844821972197
 6  4.02902622502250 -0.42634648404841 -0.41532406110611
 6  5.08751235863586  0.27735105960596 -0.95656555675568
 6  4.97268468506851  1.07260179647965 -2.28967605870587
 6  6.40635709330933  0.40921972887289 -0.25693237943794
 6  7.65902364126413 -0.24709659155916 -1.01438110681068
 6  8.95203428582858  0.02864313081308 -0.15936853105311
 6  10.15213610661066 -0.64065116341634 -0.88524491889189
 6  10.08339552575258 -2.19794912981298 -1.15151681318132
 6  11.45936705380538 -0.25559645024502 -0.10461026232623
 6  12.77539470847085 -0.46497301320132 -0.83540408020802
 6  13.87889357715772 -0.00209697289729  0.05331254425443
 6  15.42529787378738 -0.12905551725173 -0.60071312161216
 6  15.75581968416842 -1.64421720752075 -0.83428070787079
 6  16.38721197519752  0.40898528462846  0.34496368106811
 6  17.75946165046505  0.68375650145015 -0.22575085498550
 6  18.85273067256726  1.13214506130613  0.77639000070007
 6  20.25317299709971  1.48478422302230  0.25179478307831
 6  20.34567479637964  2.34805045304530 -0.90158597999800
 6  21.19014688878888  1.88234260366037  1.33880058165817
 1 -4.09181944044404  3.54831321302130  1.62622714371437
 1 -10.14936868856886  3.84250183408341 -0.41715601820182
 1 -10.42570183198320 -2.45705576027603 -0.93533708120812
 1 -2.33828251895190 -1.04154381808181  1.98772601120112
 1 -2.35408504650465  1.68452694129413  1.25836020252025
 1 -1.90068379167917  0.62782827182718  3.87315752915292
 1 -2.95558034423442  2.35173463006301  3.47592215971597
 1 -3.63695467666767  0.64398876657666  3.66985086958696
 1 -2.18791131803180 -1.56772269266927 -0.47487247324732
 1 -2.07401160336034  0.13878596989699 -0.81133623522352
 1 -0.34724181818182  0.49735765926593  1.16696894879488
 1 -0.47132308600860 -1.12383535893589  1.37130000590059
 1 -4.79514168186819  6.65049022412241  0.93080486268627
 1 -6.10372504280428  6.34477427622762  2.29789447864787
 1 -4.81407463626363  5.38814398579858  2.00415409410941
 1 -9.72451995089509  5.90888382448245  0.56322416691669
 1 -8.92368300870087  7.96413500300030  0.02724331763176
 1 -7.10242527912791  7.30010057925793 -0.22362683328333
 1 -12.20425583838384  3.27214451975198 -2.07386368476848
 1 -13.21627684118412  1.97529316741674 -1.62923644734473
 1 -12.40032699409941  2.87473055845585 -0.26499799779978
 1 -12.40398292639264 -1.70938333653365 -0.92496270417042
 1 -13.18871487508751 -0.30258407140714 -1.53816117311731
 1 -13.29654012021202 -1.54362560176018 -3.50050304800480
 1 -12.55188536253625 -0.03186191209121 -3.74750232523252
 1 -11.48656200380038 -1.36090903490349 -3.72771188668867
 1 -9.09530042594259 -4.96020886918692 -2.05938351975197
 1 -7.93384708570857 -5.69593970217022 -0.75659988808881
 1 -9.33989615541554 -5.04103089008901 -0.40519877607761
 1 -3.42728286028603 -3.53014459895990 -0.24606125912591
 1 -1.87713880388039 -4.45127350465047  3.61948863586359
 1 -3.13504869226923 -5.81023166556656  3.39739696179618
 1 -1.06677810431043 -5.73385756285629  2.87270397329733
 1  2.71893656475648 -1.82832252215221 -1.36620069636964
 1  2.47693939413941 -0.22738982058206 -2.10442246204620
 1  4.22628185248525 -1.11262926912691  0.36591896809681
 1  3.77955889218922  1.14110520682068 -2.59018236053605
 1  5.25059835823582  1.99470386058606 -2.01800615521552
 1  5.70743606640664  0.79744007420742 -3.09842114141414
 1  6.58803182648265  1.46141236893689 -0.27108961126113
 1  6.30487383538354 -0.00298354725473  0.87494850195020
 1  7.11881562366237 -1.35804687638764 -1.03245737443744
 1  7.95416694769477  0.36470334683468 -1.94402454935494
 1  9.03865996319632  1.04061667816782  0.01409537203720
 1  8.74695251805180 -0.64496285168517  0.67118173677368
 1  10.36537824932493 -0.16146137983798 -1.99473330393039
 1  9.29939643604360 -2.32100914521452 -1.82592755395540
 1  10.84828791349135 -2.42825933853385 -1.56960314631463
 1  10.05632310591059 -2.89650127272727 -0.18345043574357
 1  11.49775453765376  0.82379678717872  0.51473343674367
 1  11.31662207190719 -0.98331066916692  0.65035250825083
 1  13.10655639133913 -1.64385124652465 -1.31486982188219
 1  12.73977288328833  0.13459293829383 -1.70886925072507
 1  13.58332983618362  0.84528778427843  0.42265892639264
 1  13.83938002830283 -0.61620405770577  1.05318048774877
 1  15.45846823892389  0.37043690409041 -1.56507616711671
 1  15.38053005400540 -2.31793851975198 -0.06541413901390
 1  15.17175470727073 -2.25594378797880 -1.69701742214221
 1  16.75832389098910 -1.74880880948095 -1.15137724652465
 1  15.98868407810781  1.33394246694669  0.87751117211721
 1  16.55076677867787 -0.23902029772977  1.23595652735274
 1  18.17390658255826 -0.29353631743174 -0.56743275087509
 1  17.75855593679368  1.41070232873287 -1.19257274117412
 1  18.40701938473847  2.17104900450045  1.14574967586759
 1  18.75981225862586  0.66877048834883  1.65526187778778
 1  20.74199426612661  0.33770020582058  0.02058980938094
 1  20.04494132743275  3.40014899979998 -0.74589485898590
 1  21.28640475437544  2.49384526242624 -1.31502275627563
 1  19.66700753395340  2.00112151445145 -1.55414583788379
 1  21.11123113841384  1.45097440124012  2.35198464006401
 1  22.19274391489149  2.02896142734273  0.85838010421042
 1  20.86894942754276  3.03626730293029  1.53499943114311

