%nproc=4
%Mem=2GB
# td=(NStates=1) CAM-B3LYP/6-31G(d,p) 

TD

0 1
12 -7.20074174347435  0.58102634333433  0.19295734433443
 6 -4.82885176627663 -1.98666077737774  0.54923055795580
 6 -4.89909921622162  2.77790211751175  1.25491894909491
 6 -9.35712030083008  3.05220762016202 -0.39692102510251
 6 -9.53665469306931 -1.70786096109611 -0.87543565856586
 7 -5.13360614221422  0.39094035453545  0.87390491089109
 6 -4.36799440474047 -0.69495011541154  0.81142304510451
 6 -2.88610957215722 -0.33446871897190  1.20181562276228
 6 -3.08097838703870  1.17021815431543  1.62222502890289
 6 -4.40743883058306  1.46082646304630  1.21529779097910
 6 -2.93194098509851  1.30778726602660  3.11392491859186
 6 -1.88178245914591 -0.62435644574457  0.02689201500150
 6 -0.44008226222622 -0.35904413581358  0.55002358525853
 6  0.56311568996900 -0.49018245034503 -0.64404605640564
 8  0.16141669136914 -0.83663506730673 -1.70133941424142
 8  1.73377040204020 -0.27334224102410 -0.14914913501350
 7 -7.17379498799880  2.56301770907091  0.37343250005001
 6 -6.13066019701970  3.42552350625063  0.79057704170417
 6 -6.49586757645765  4.76376700710071  0.98617638213821
 6 -7.72529312471247  4.82074196089609  0.42025893289329
 6 -8.19089964316432  3.47061735303530  0.09914025322532
 6 -5.57877365856586  5.83111420272027  1.51808833403340
 6 -8.56330554295430  6.06611167916792  0.25697571947195
 6 -8.21288048584858  7.26762284658466 -0.14830909320932
 7 -9.17664269997000  0.67551402970297 -0.52510421572157
 6 -9.87789944894489  1.80277095969597 -0.73619874407441
 6 -11.26453119601960  1.46526751715172 -1.05082983258326
 6 -11.34029254995500  0.07296117341734 -1.21495076127613
 6 -9.94358424212421 -0.38533702180218 -0.86838614151415
 6 -12.28224646674668  2.48589086998700 -1.41894242514251
 6 -12.37249729542954 -0.80267132933293 -1.74838001520152
 6 -12.29808614061406 -1.26729061426143 -3.24133223862386
 7 -7.24841109320932 -1.42320168176818 -0.06680979967997
 6 -8.27656287858786 -2.24138007750775 -0.50184799069907
 6 -7.82203987148715 -3.61854603750375 -0.51847027602760
 6 -6.44899042104210 -3.59064337983798 -0.00438293039304
 6 -6.21554633283328 -2.16604275877588  0.24766638803880
 6 -8.67532787748775 -4.82017483638364 -0.98300784778478
 6 -5.28809534723472 -4.33138912421242  0.16298479837984
 8 -5.17484884668467 -5.52953560716072  0.09575561036104
 6 -4.14410782078208 -3.32230516461646  0.55166605860586
 6 -3.53375773997400 -3.69066515111511  1.84889606930693
 8 -3.71645530013001 -3.14639787258726  2.92181589688969
 8 -2.65382673057306 -4.69892804530453  1.68770685868587
 6 -2.11059369786979 -5.19679014831483  2.93124446144614
 6  2.82175595219522 -0.66535579327933 -1.15422079697970
 6  4.12940626302630 -0.38559240864086 -0.53728625732573
 6  5.10993460086009  0.30782410691069 -0.94689458965897
 6  5.10790820742074  1.13638817511751 -2.19098618971897
 6  6.46947340494049  0.34971377827783 -0.16920360656066
 6  7.64611235013501 -0.16217809970997 -0.97774744344434
 6  8.92177125952595 -0.15337507100710 -0.10469306350635
 6  10.25690658365837 -0.62708980728073 -0.85220161456146
 6  10.14850203640364 -2.11309064396440 -1.26607826932693
 6  11.48150926802680 -0.39556044664466 -0.04036383768377
 6  12.78022519151915 -0.55490200610061 -0.82451299109911
 6  13.95817150495050 -0.16128289148915  0.16939415241524
 6  15.31631697569757 -0.21376398809881 -0.57208025832583
 6  15.77556165836584 -1.51612439823982 -1.18670595039504
 6  16.42896615061506  0.27645203130313  0.33970315501550
 6  17.77572327662766  0.64678280408041 -0.19038731863186
 6  18.70650605010501  1.30535238203820  0.77103946564656
 6  20.24506218601860  1.38958470307031  0.32715231883188
 6  20.46156638553855  2.06980262826283 -0.95573139453945
 6  21.07508538263826  2.01617598699870  1.44106080768077
 1 -3.98830908940894  3.45220360206021  1.68775329632963
 1 -9.96473022472247  3.95172275617562 -0.68010231283128
 1 -10.17077633943394 -2.54527458215822 -1.31038458595860
 1 -2.70039873057306 -1.02373203690369  1.94514175277528
 1 -2.41631126912691  1.86761525012501  1.16960132663266
 1 -1.86641036433643  0.99232472147215  3.40801101450145
 1 -3.03960874707471  2.42521197779778  3.40809537703770
 1 -3.61536251745175  0.83007737543754  3.84918880338034
 1 -1.93620614751475 -1.68262418281828 -0.39240422642264
 1 -2.05247945014501  0.15135722702270 -0.83397849944994
 1 -0.46442353635364  0.53682160566057  1.14131638353835
 1 -0.23997995169517 -1.15583855925593  1.27494036993699
 1 -4.91057322502250  6.17181235633563  0.61576335853585
 1 -6.06837150745074  6.55906570537054  1.95002969216922
 1 -4.79575280408041  5.43969914131413  2.19991367006701
 1 -9.68849634853485  5.89635257135714  0.43613145764576
 1 -8.99575021542154  7.89687827732773 -0.08928833553355
 1 -7.16599163576358  7.34759532873287 -0.13206767736774
 1 -12.14577999079908  2.93939124442444 -2.57595389378938
 1 -13.37302251575157  2.12318795689569 -1.28227175087509
 1 -12.00695765716572  3.44872795819582 -0.60810230823082
 1 -12.50550307840784 -1.67943034123412 -1.06428663656366
 1 -13.40218622222222 -0.19018283128313 -1.66924428142814
 1 -13.30511097729773 -1.75834707390739 -3.49100209790979
 1 -12.23507368136814 -0.33711243714371 -3.93493106810681
 1 -11.43233658125813 -1.82102504650465 -3.25215433093309
 1 -8.84232512841284 -4.77631047934794 -2.05523310471047
 1 -7.95952965396540 -5.77274738293829 -0.71290551865187
 1 -9.49715188098810 -4.74844163116312 -0.28951720792079
 1 -3.26023615561556 -3.47834941944194 -0.17139379237924
 1 -1.42951404140414 -4.51668004530453  3.20323701070107
 1 -2.97911309870987 -5.58787943034303  3.56717393949395
 1 -1.72096352285229 -6.22817699479948  2.66158286118612
 1  2.74267893899390 -1.72967265716572 -1.31410548684869
 1  2.79614131433143 -0.35264234583458 -2.11040306010601
 1  4.29619884418442 -0.80450845704570  0.30715309150915
 1  4.19557049334933  1.05773686998700 -2.66028937123712
 1  5.47586088448845  2.12065645584558 -1.96785113971397
 1  5.59534485728573  0.62860319051905 -2.97707900720072
 1  6.79901292459246  1.52068829652965 -0.18833133543354
 1  6.37839118711871 -0.04994824372437  0.95767677477748
 1  7.18324206630663 -1.12502357405741 -1.18817294599460
 1  7.82493402440244  0.49083596009601 -1.79327947484748
 1  9.09776587378738  0.81794441094109  0.21558552105211
 1  8.86729455225523 -0.86337469286929  0.74654927352735
 1  10.37838955045505 -0.14871010471047 -1.93230706130613
 1  9.47780427682768 -2.26694373867387 -2.05365032623262
 1  11.12750583528353 -2.31796830943094 -1.73613979998000
 1  10.09643711731173 -2.70991261386139 -0.52382447314731
 1  11.34757952015202  0.43755816331633  0.34505646904690
 1  11.47680809050905 -1.42829516761676  0.63665113811381
 1  12.80002573827383 -1.60888775017502 -1.09045738063806
 1  12.89629853585359  0.14906438543854 -1.65688405220522
 1  13.84130563376338  0.81708496399640  0.44543120362036
 1  13.73572966326633 -1.01288372567257  1.00692586228623
 1  15.22967535963596  0.58017787818782 -1.31504116361636
 1  15.73876587758776 -2.13893061896190 -0.36055365296530
 1  14.99823735553555 -1.74482267586759 -2.02044976537654
 1  16.78498655725573 -1.30573450205021 -1.68613072187219
 1  16.09205441514151  1.21962103480348  0.61350477147715
 1  16.44921662366237 -0.36339273497350  1.13918685038504
 1  18.33621281318132 -0.37019398319832 -0.58664467206721
 1  17.57065714691469  1.30554181268127 -1.19322280618062
 1  18.47854653745375  2.24137603720372  1.01084618551855
 1  18.84209048644864  0.63483709500950  1.75121147274728
 1  20.78912897959796  0.36938337413741  0.04634238463846
 1  20.30106693999400  3.22202118701870 -0.75464573407341
 1  21.40591670557056  1.95393127102710 -1.44817607160716
 1  19.60798163136313  1.65454685698570 -1.64286470977098
 1  20.84958497379738  1.37841714551455  2.23146258785879
 1  22.20264490499050  1.71406993819382  1.24738900510051
 1  21.00803333593359  3.26410008620862  1.48807473867387

