%nproc=4
%Mem=2GB
# td=(NStates=1) CAM-B3LYP/6-31G(d,p) 

TD

0 1
12 -7.05361703100310  0.56129437013701  0.06015406400640
 6 -4.85993487458746 -1.98703081438144  0.47277291219122
 6 -4.80743004930493  2.74832916021602  1.20676413361336
 6 -9.46887147594759  3.08436083548355 -0.24854618761876
 6 -9.50884191179118 -1.75418559355936 -0.91357947294729
 7 -5.12119490109011  0.38820008050805  0.70327784818482
 6 -4.36361396669667 -0.67762838323832  0.82096399919992
 6 -2.96761772297230 -0.34482975507551  1.18428386958696
 6 -3.06072636183618  1.04594572707271  1.75213802020202
 6 -4.42264035073507  1.47836821722172  1.18485474667467
 6 -3.19816760776078  1.15440192749275  3.18946247234723
 6 -1.98011229212921 -0.66635064516452  0.07112643844384
 6 -0.47620587458746 -0.34990322172217  0.44612319521952
 6  0.49802918131813 -0.53484691679168 -0.73188484028403
 8  0.29751030073007 -0.87622902670267 -1.83527280758076
 8  1.72268929392939 -0.30924583138314 -0.20382460256026
 7 -7.01914952345235  2.63845525282528  0.27111226802680
 6 -6.05420255125513  3.36788774267427  0.82483046704670
 6 -6.43149113881388  4.72057268766877  0.96895465996600
 6 -7.71678227362736  4.76042592929293  0.51554846184618
 6 -8.14257481068107  3.48024831613161  0.10362070127013
 6 -5.58884466566657  5.79669076037604  1.48869539473947
 6 -8.54803401580158  6.01556662466247  0.33302332423242
 6 -8.12513171097110  7.22611869616962 -0.01559582188219
 7 -9.10373540924092  0.70354683298330 -0.48830053535354
 6 -9.87423908290829  1.78767945054505 -0.73984910911091
 6 -11.18108285118512  1.49470046044604 -1.30030478007801
 6 -11.17279580028003  0.09225310261026 -1.26832609880988
 6 -9.90340022372237 -0.37208569666967 -0.76012531543154
 6 -12.26060430253025  2.41033331423142 -1.66943747464746
 6 -12.36131617731773 -0.75166622882288 -1.69839501670167
 6 -12.34342067406741 -1.27769165436544 -3.15972407780778
 7 -7.30778703080308 -1.39410877247725 -0.13430654935494
 6 -8.30094531683168 -2.23224916441644 -0.56828463436344
 6 -7.84391205870587 -3.69542372527253 -0.55287371637164
 6 -6.45759128112811 -3.53840815631563 -0.10054254635464
 6 -6.26180095829583 -2.15848200270027  0.09557117851785
 6 -8.57991833653365 -4.92570538943894 -0.70571011801180
 6 -5.38103464116412 -4.32560854615462  0.21980047994799
 8 -5.24197555935594 -5.60803345694569  0.20509654445445
 6 -4.14374778477848 -3.33893682778278  0.57089798179818
 6 -3.56734109830983 -3.72058814341434  1.92594377407741
 8 -3.77556121072107 -3.22446567936794  3.08786250155016
 8 -2.76866821472147 -4.84088224072407  1.80625871387139
 6 -2.25735837433743 -5.35350581988199  2.99878121512151
 6  2.76061983858386 -0.47722698039804 -1.13951932683268
 6  4.10725404780478 -0.35391924132413 -0.39702223092309
 6  5.10204381178118  0.45279860436044 -0.93824372457246
 6  4.91794921152115  1.37443197949795 -2.19386647774777
 6  6.44959141674167  0.52586139303930 -0.21131781798180
 6  7.67801554045405  0.04597271537154 -0.91829149784979
 6  8.99417850025002 -0.01445117861786 -0.11926452065207
 6  10.21299219221922 -0.43712081038104 -0.84263065746575
 6  10.12936012221222 -1.93981331623162 -1.23117477897790
 6  11.40340145724572 -0.12687357795780 -0.00291009230923
 6  12.75437260626063 -0.52866938283828 -0.69325986578658
 6  14.01767745554556 -0.12374913811381  0.11490870387039
 6  15.36585192919292 -0.16626923862386 -0.54780783108311
 6  15.60661476367637 -1.63090587638764 -1.19214649444945
 6  16.43928718271827  0.31428581468147  0.33775295999600
 6  17.88232393669367  0.50653877967797 -0.25422370227023
 6  18.83786918641864  1.17392923972397  0.77995035673567
 6  20.32010969076908  1.18662440704070  0.29625922952295
 6  20.40289051795179  2.17960360836084 -0.95568138953895
 6  21.28414628872887  1.72958732813281  1.29530623222322
 1 -4.23530378887889  3.61807018871887  1.51596611761176
 1 -10.11756550825083  3.87808539243924 -0.67651195379538
 1 -10.26634589638964 -2.54967502220222 -1.40728427592759
 1 -2.42331102180218 -1.02253191689169  1.98082532113211
 1 -2.38380801880188  1.82137062566257  1.31891625812581
 1 -2.30029375267527  0.66802229122912  3.65504571797180
 1 -3.11386617281728  2.24106356295630  3.69162372987299
 1 -4.30259124032403  0.58326269396940  3.51288517301730
 1 -2.12979550645065 -1.65029094949495 -0.05093007900790
 1 -2.18678288048805  0.04099619091909 -0.95891099269927
 1 -0.21535862986299  0.50744866836684  0.99193144504450
 1 -0.14798075177518 -1.12714568996900  1.18504138003800
 1 -4.88123029072907  6.13353852895290  0.64104588678868
 1 -6.04121879217922  6.73339313811381  1.76708139733973
 1 -4.83049627842784  5.64920009140914  2.41695537423742
 1 -9.62261976087609  5.83122605870587  0.45691353585358
 1 -8.84553519391939  8.07537612711271 -0.21468087478748
 1 -7.15824086068607  7.45479604880488 -0.47589205980598
 1 -11.73642905570557  3.35282258755876 -2.39461575997600
 1 -13.16453166666667  1.92351798989899 -2.12099562326233
 1 -12.68123508490849  2.90718380378038 -0.77943944194419
 1 -12.41252378047805 -1.62295469366937 -0.91429163706371
 1 -13.34397040064006 -0.17580139313931 -1.65281263826383
 1 -13.35248571477148 -1.69905114431443 -3.47530052775278
 1 -12.03097327132713 -0.39438816471647 -3.82380995599560
 1 -11.60963431103110 -2.06543948794879 -3.30194931043104
 1 -8.81217211311131 -5.13296614491449 -1.58753633503350
 1 -7.77292099309931 -5.70491059925993 -0.50059428752875
 1 -9.47706987278728 -4.90644743174317 -0.11836009220922
 1 -3.50158029002900 -3.49054063856386 -0.14038069106911
 1 -1.85314640464046 -4.53634201150115  3.63359004600460
 1 -2.96896208360836 -5.55096573897390  3.74201142324232
 1 -1.53867529402940 -6.15072925002500  2.70313701660166
 1  2.51652632373237 -1.43151284118412 -1.39727380368037
 1  2.68605030523052  0.40533345174517 -1.86803882368237
 1  4.43432265656566 -0.90510851705171  0.56755913211321
 1  3.91053198949895  1.44907600390039 -2.74387773007301
 1  5.12490578897890  2.40556494669467 -1.65627998259826
 1  5.64696001880188  1.00727105730573 -3.08553985328533
 1  6.54756778007801  1.52519874757476  0.20528802650265
 1  6.21468481648165 -0.21135438433843  0.80647165426543
 1  7.52541628372837 -0.88996006770677 -1.23242737143714
 1  7.85937746874687  0.45210208670867 -1.80296044294429
 1  9.08842493969397  0.98228084458446  0.34396835933593
 1  8.88458628142814 -0.74348270367037  0.75909052765276
 1  10.55653736523652  0.15817058335834 -1.71046487708771
 1  9.35177167356736 -2.47741478577858 -1.93567852905291
 1  11.00752383708371 -2.18748526112611 -1.93817000300030
 1  10.06217369096910 -2.47126874947495 -0.28912100280028
 1  11.52414717691769  0.91056546404640  0.30459242264226
 1  11.37044745444544 -0.80630296839684  0.73951142414241
 1  12.75240097579758 -1.60709757115712 -1.02504083898390
 1  12.83923282928293  0.04177365636564 -1.64800316411641
 1  13.91272277547755  0.72794605010501  0.58708536903690
 1  14.01528761906191 -0.92266470377038  0.98448361806181
 1  15.18218061016102  0.48131799219922 -1.43057271677168
 1  15.62381438243825 -2.37427415331533 -0.35756335393539
 1  14.77063459525953 -2.00712890649065 -1.79262698309831
 1  16.44913297189719 -1.66324025262526 -1.58145025382538
 1  16.27938314801480  1.20518959165917  0.90040346134613
 1  16.49828153015302 -0.39243563926393  1.36204913661366
 1  18.28207739963997 -0.37079404320432 -0.65034104170417
 1  17.92484256545655  1.06247750625062 -1.24618810271027
 1  18.60516919971997  2.16457835743574  0.98491359225923
 1  18.82717899529953  0.56148976027603  1.64208055965597
 1  20.65359542624262  0.15920235603560 -0.11650389999000
 1  20.17853468676868  3.22746173107311 -0.89373964346435
 1  21.48545465936594  2.08097397529753 -1.35872712671267
 1  19.79976080928093  1.90343174547455 -1.86735715901590
 1  21.26592660796080  1.10497980178018  2.24742418401840
 1  22.39328396889689  1.75844437563756  0.95795006120612
 1  21.02129466206621  2.80780445664566  1.55906183738374

