%nproc=4
%Mem=2GB
# td=(NStates=1) CAM-B3LYP/6-31G(d,p) 

TD

0 1
12 -7.22358402770277  0.63260150085009  0.19795784438444
 6 -4.84006288738874 -1.96452856415642  0.52293792869287
 6 -4.95042434873487  2.86242056935694  1.29697315451545
 6 -9.50278486728673  3.06228862826283 -0.35868720172017
 6 -9.50056108370837 -1.79089926492649 -0.98513662866287
 7 -5.13319610121012  0.44075533603360  0.77517503790379
 6 -4.38959656495650 -0.64849546994699  0.87842974577458
 6 -2.96312727392739 -0.37745301740174  1.25898133933393
 6 -3.05804609380938  1.15406653915392  1.71850465686569
 6 -4.45046313301330  1.55210559095910  1.22496875807581
 6 -3.03022081308131  1.37157364466447  3.22477600370037
 6 -1.93556783768377 -0.59380339043904  0.15097442324232
 6 -0.40087834183418 -0.45019325072507  0.59623820672067
 6  0.52680205860586 -0.67209064116412 -0.59529118091809
 8  0.32082263196320 -1.13916532033203 -1.63302258255826
 8  1.80367739273927 -0.39968487528753 -0.06083030313031
 7 -7.11469907840784  2.58344975227523  0.37668282508251
 6 -6.15967309830983  3.34894584848485  0.88839682368237
 6 -6.52668065776578  4.69432006240624  0.93629139363936
 6 -7.79893048844885  4.77938782548255  0.47703461046105
 6 -8.25739629282928  3.49877016831683  0.21917225642564
 6 -5.74006978817882  5.85793688498850  1.41146767196720
 6 -8.73839305170517  5.95717078507851  0.26151617351735
 6 -8.40592979077908  7.27650373467347  0.04484022172217
 7 -9.12976801250125  0.69964644294429 -0.57444915021502
 6 -9.98607026602660  1.75809649224923 -0.73210833503350
 6 -11.30607535043504  1.36892788318832 -1.19777452705270
 6 -11.24026254695469 -0.01887801050105 -1.26887615381538
 6 -9.90461034473447 -0.40872936103610 -0.88929823272327
 6 -12.26636487858786  2.40778305920592 -1.56596712761276
 6 -12.47091713741374 -0.78950001220122 -1.85809098629863
 6 -12.52002833483348 -0.91461534673467 -3.34134223962396
 7 -7.24921117321732 -1.34974433603360 -0.11250436913691
 6 -8.22516773907391 -2.22994893439344 -0.56868467436744
 6 -7.76444411191119 -3.58917310021002 -0.50177860686069
 6 -6.47795331733173 -3.50133444894489 -0.07398989108911
 6 -6.21328610681068 -2.15526168066807  0.19368098949895
 6 -8.54890523522352 -4.83803662256226 -0.83846339333933
 6 -5.31168770647065 -4.35041102640264  0.32361086098610
 8 -5.11651301310131 -5.60478313191319  0.23995002980298
 6 -4.13013642364236 -3.27258019211921  0.57366825882588
 6 -3.40287465166517 -3.58013409800980  1.83703488318832
 8 -3.54004765936594 -3.17602083488349  2.97779149444945
 8 -2.58617996589659 -4.67136528902890  1.70112820082008
 6 -2.01696433493349 -5.19353982328233  2.87282861986199
 6  2.83043682028203 -0.61140039773977 -1.13993936883688
 6  4.13822714511451 -0.32094594399440 -0.43246577527753
 6  5.18120172757276  0.37844116861686 -0.99553945414541
 6  5.15118253485349  1.10764530083008 -2.26963405450545
 6  6.55618207580758  0.37755656255626 -0.29217590379038
 6  7.66200393929393 -0.05111699359936 -1.09355902460246
 6  8.93643272567257 -0.07219695319532 -0.20599319351935
 6  10.22627352035203 -0.62500959925993 -1.00525692009201
 6  10.13234042024203 -2.08642797769777 -1.44086574807481
 6  11.46261737883788 -0.32515340594059 -0.11910171147115
 6  12.82628979797980 -0.50680719661966 -0.87877841764176
 6  14.02929861766177 -0.09056581978198  0.11906911991199
 6  15.33270861486149 -0.22372498419842 -0.59282233253325
 6  15.76969107130713 -1.63444623042304 -0.89893717351735
 6  16.28402165616561  0.45889027512751  0.31181036573657
 6  17.76974267856786  0.62989111491149 -0.11379965986599
 6  18.86050144964496  1.25065691249125  0.88356071777178
 6  20.28579625942594  1.26053179777978  0.29579918351835
 6  20.33833406230623  2.13954960296030 -0.97554337573757
 6  21.19674754885489  1.63032740214021  1.39881658325833
 1 -4.22721297979798  3.63731211291129  1.67270179117912
 1 -10.17775152685268  3.96451403530353 -0.57837213981398
 1 -10.14310357215722 -2.71368142284228 -1.06445999349935
 1 -2.66279497019702 -1.06410607430743  2.14727196579658
 1 -2.20081971997200  1.79717820642064  1.30368473497350
 1 -2.11848557185719  0.80865635463546  3.60183039643964
 1 -3.06094088028803  2.20579003560356  3.85602016951695
 1 -3.70926190739074  0.90503487118712  3.79368325282528
 1 -2.17075960286029 -1.49285520592059 -0.25880086608661
 1 -1.95061926412641  0.20265235653565 -0.77132223382338
 1 -0.18567566156616  0.47808573207321  1.13545579747975
 1 -0.14539049274928 -1.27363033843384  1.36480935683568
 1 -4.97373954165417  6.31905708080808  0.74459624182418
 1 -6.19027369766977  6.59489928872887  1.83185787498750
 1 -5.14605783458346  5.69538470987099  2.40358403710371
 1 -9.98492599149915  5.79385232133213  0.16560440494049
 1 -9.16787742814281  7.94901349084908 -0.41730113681368
 1 -7.46350138673867  7.63552412161216  0.03190872027203
 1 -11.90815622842284  3.13011031633163 -2.38080437883788
 1 -13.33830904440444  1.98585422352235 -1.95186871057106
 1 -12.57725468686869  2.96290937633763 -0.66604810281028
 1 -12.33688621672167 -1.81441383958396 -1.47873808170817
 1 -13.42555855945595 -0.39503331633163 -1.57463482048205
 1 -13.51857232343234 -1.62344358355836 -3.75771876957696
 1 -12.53372354635464 -0.04361308720872 -3.98968654365437
 1 -11.73930727832783 -1.61874481848185 -3.80470958645865
 1 -8.70923181908191 -4.67052990129013 -1.99882746414641
 1 -7.75645934693469 -5.58793890209021 -0.61314554265427
 1 -9.56999916571657 -4.86240302730273 -0.34613286948695
 1 -3.38575870787079 -3.74031561606161 -0.28463511651165
 1 -1.79872096209621 -4.38631700900090  3.40637732473247
 1 -2.74609979737974 -5.75707635003500  3.51651887398740
 1 -1.05047647414741 -5.81826600370037  2.57853455635564
 1  2.69349402050205 -1.51672136203620 -1.77639171547155
 1  2.73980568076808  0.14701762016202 -1.89563158295830
 1  4.49897912221222 -1.04325233143314  0.44542691889189
 1  4.22235317161716  0.99804090039004 -2.82545588788879
 1  5.34029732813281  2.27417180738074 -2.11155551015101
 1  5.97076239903990  0.53027335753575 -2.93522482178218
 1  6.72492551585159  1.53865009270927  0.03202069976998
 1  6.39631297929793 -0.23219646854685  0.57515852295229
 1  7.33602734483448 -0.93170424212421 -1.67205133383338
 1  7.76748827982798  0.56275315181518 -2.06724687158716
 1  9.12382848004800  0.81820443694369  0.10497445994599
 1  8.82288011081108 -0.66938529392939  0.87931254985499
 1  10.20641235273527 -0.00933616731673 -1.87991182178218
 1  9.22898939533954 -2.24769181348135 -1.98565352655266
 1  10.96475956065607 -2.45368188078808 -1.95343152915292
 1  10.13252072567257 -2.72334395699570 -0.53912600330033
 1  11.57991275347535  0.55289969746975  0.17747971137114
 1  11.47348775847585 -1.00334267236724  0.75507298029803
 1  12.99513524922492 -1.65021188258826 -1.02161049594959
 1  12.87125603160316  0.03249272827283 -1.86693505730573
 1  14.03017452065206  1.04980823632363  0.37328398889889
 1  14.19735582588259 -0.88768120542054  0.97035220492049
 1  15.39211160326033  0.16839670007001 -1.55970563006301
 1  15.85156715771577 -2.28585531143114 -0.00352795039504
 1  15.03874140594059 -1.75062325592559 -1.83412113251325
 1  16.76866492509251 -1.71930585918592 -1.28415052385238
 1  15.90260547024702  1.40064913761376  0.62804622562256
 1  16.51843354535454 -0.01688808450845  1.27459039073907
 1  18.40535972787279 -0.26414337813781 -0.61624763236324
 1  17.83096317751775  1.32263352185218 -1.11624510841084
 1  18.35773445624562  2.19509140874087  1.27020212111211
 1  18.88213449084908  0.49179279057906  1.69328568016802
 1  20.59786985368537  0.48392482828283 -0.13026527612761
 1  19.84029086238624  3.20992997789779 -0.93338360786079
 1  21.37726384028403  2.44273015091509 -1.07751900590059
 1  19.75152598579858  1.58846024832483 -1.80844126742674
 1  21.25489550485048  0.75067437123712  2.19275871747175
 1  22.40945558605861  1.76379491069107  1.27085135133513
 1  20.86355888848885  2.65369904610461  1.92232816401640

