%nproc=4
%Mem=2GB
# td=(NStates=1) CAM-B3LYP/6-31G(d,p) 

TD

0 1
12 -7.12625429472947  0.63481172187219  0.11004905350535
 6 -4.83406228732873 -1.91047315861586  0.42991862676268
 6 -4.87311661796180  2.80500482778278  1.16728018521852
 6 -9.48573316211621  3.02730512991299 -0.29085041804180
 6 -9.52997402500250 -1.67672784778478 -0.92575069006901
 7 -5.08296107770777  0.45350661116112  0.67316483688369
 6 -4.36836444174417 -0.69784040444044  0.79897179998000
 6 -2.96985794699470 -0.34471974407441  1.33002844404440
 6 -3.07585787498750  1.16451758425843  1.62786559295930
 6 -4.45902398909891  1.53362374277428  1.12876913811381
 6 -3.05809360036004  1.34164065136514  3.19735326142614
 6 -1.95385966686669 -0.67561157125713  0.12935226102610
 6 -0.45887414141414 -0.72466069746975  0.69847843074307
 6  0.47083646204620 -0.88379181128113 -0.43107475927593
 8  0.12003255295530 -1.22612401620162 -1.52860214051405
 8  1.72006903190319 -0.50119502630263 -0.19082330243024
 7 -7.17799540804080  2.56438784608461  0.33444860166017
 6 -6.10703783478348  3.33474442834283  0.80090807480748
 6 -6.50879886958696  4.78215884628463  0.84072183668367
 6 -7.81582217761776  4.82991287798780  0.41604851185118
 6 -8.22387294049405  3.50247053835384  0.09028936813681
 6 -5.60798657985799  5.78399949124912  1.31600812601260
 6 -8.56538575097510  6.04896996499650  0.34629465136514
 6 -8.19357855565556  7.31026711101110  0.06975271297130
 7 -9.14428946464646  0.66694317261726 -0.52164386968697
 6 -9.95364702370237  1.75151583418342 -0.56383150735073
 6 -11.32183692659266  1.49944093449345 -0.98651340094009
 6 -11.39912843354335  0.16079995729573 -1.22435170137014
 6 -9.99837972167217 -0.31881036913691 -0.87622692559256
 6 -12.24215245734574  2.46914919581958 -1.33678420932093
 6 -12.47998804450445 -0.71809287148715 -1.71679685688569
 6 -12.37792412441244 -0.88157204240424 -3.24073217861786
 7 -7.23963021512151 -1.36927628922892 -0.27974109280928
 6 -8.30226544884489 -2.27806374587459 -0.60757856375638
 6 -7.79255692319232 -3.67715189808981 -0.51472990199020
 6 -6.49279480148015 -3.51610592609261 -0.18517100920092
 6 -6.21669644784478 -2.14967112161216  0.04079570097010
 6 -8.54214455915591 -4.89935275417542 -0.95068461546155
 6 -5.31948848654865 -4.38312429772977  0.13464196409641
 8 -5.14778614041404 -5.60583323692369  0.15910194499450
 6 -4.16278968896890 -3.25111804590459  0.53928482048205
 6 -3.51433579777978 -3.67327341194119  1.87466864656466
 8 -3.79631328592859 -3.05152838563856  2.93254696999700
 8 -2.70753210111011 -4.72873102560256  1.61609969796980
 6 -1.96599923842384 -5.14021449074908  2.84464580158016
 6  2.76083986058606 -0.67257651535154 -1.13848922382238
 6  4.08842216461646 -0.45699954935494 -0.51497402610261
 6  5.08794240164016  0.31728505300530 -0.94860476067607
 6  5.10459787638764  1.18280281658166 -2.13775086618662
 6  6.53244970257026  0.38479728662866 -0.24227091329133
 6  7.75570330923092 -0.21836371827183 -0.95282495119512
 6  9.03583266566657 -0.08499823332333 -0.09950254445445
 6  10.26149704270427 -0.48783588188819 -0.80532692709271
 6  10.17396458265827 -2.02224155905591 -1.32970463196320
 6  11.55988710581058 -0.24005489608961  0.13307350605060
 6  12.87985515451545 -0.53340985688569 -0.55331587138714
 6  14.02480816861686 -0.12000876407641  0.19667688068807
 6  15.37742308630863 -0.23148576027603 -0.54546759705971
 6  15.79487358955896 -1.57619040484048 -0.94474175397540
 6  16.43764701870187  0.43017740384038  0.46343552825283
 6  17.81931763606361  0.67962608840884 -0.23105138503850
 6  18.83778917841784  1.39016086288629  0.76092845454545
 6  20.25606328612861  1.26914265886589  0.15858546214621
 6  20.29252948184818  1.98865451345135 -1.16637245864586
 6  21.33110098419842  2.04959932933293  1.13752045364536
 1 -3.95359561806181  3.37866624832483  1.58578309930993
 1 -10.24003775547555  3.71538912281228 -0.67724202680268
 1 -10.22720198199820 -2.30770082478248 -1.46167971547155
 1 -2.63131182188219 -1.07329699339934  2.14915215381538
 1 -2.17238687668767  1.63369185778578  1.22896726322632
 1 -2.20694441774177  0.91568705770577  3.57694790819082
 1 -2.90584537073707  2.45387484408441  3.47480204770477
 1 -3.94924590579058  0.90056442414241  3.59024290879088
 1 -2.44538706560656 -1.55655157555756 -0.32706769276928
 1 -2.16627082928293 -0.11591950065007 -0.72717781938194
 1 -0.37918501250125  0.22252017551755  1.03928618051805
 1 -0.41862781648165 -1.44476745214521  1.62703557945795
 1 -4.94938710641064  6.15271044614461  0.48243002520252
 1 -6.17958262856286  6.40867066586659  1.91112580178018
 1 -4.77686091489149  5.40328549994999  1.92614629332933
 1 -9.73798129702970  5.98562149824983  0.46630447494749
 1 -9.11671231163116  8.01891048054805  0.08490908420842
 1 -7.20183522012201  7.43738430763076 -0.08628309890989
 1 -11.83789920272027  3.21752905820582 -2.07100339873987
 1 -13.19345455895590  1.96792243034303 -1.79938346204620
 1 -12.85850281168117  3.22011509690969 -0.60235173317332
 1 -12.31426395449545 -1.77546994519452 -1.22886309420942
 1 -13.46385238883888 -0.47325113811381 -1.30528788578858
 1 -13.10261072727273 -1.49799103830383 -3.65713871157116
 1 -12.33725389938994 -0.04840356625662 -3.86841441644164
 1 -11.30603395099510 -1.30458340234023 -3.41007012251225
 1 -9.08834973087309 -5.05793864216422 -1.95358293969397
 1 -7.96198989999000 -5.85971607980798 -0.78743297139714
 1 -9.47473963976397 -4.82648943594359 -0.28784704090409
 1 -3.33228336033603 -3.52110369486949 -0.20997765076508
 1 -1.61521261126113 -4.32514089138914  3.22765945294529
 1 -2.69797498489849 -5.52710335273527  3.53396061816182
 1 -1.31798322482248 -5.88070224732473  2.47154385728573
 1  2.67294196529653 -1.89965965586559 -1.49026310261026
 1  2.41978367856786  0.06991991039104 -1.84777679747975
 1  4.39054827912791 -0.99872787898790  0.44457683388339
 1  4.04242517881788  1.42288338463846 -2.45059840214021
 1  5.46430972937294  2.17932232243224 -1.89174352895290
 1  5.83544886768677  0.67721805200520 -2.77928922822282
 1  6.49193221652165  1.43282951065106 -0.08557105940594
 1  6.31743509150915 -0.20373362226223  0.64980598769877
 1  7.57053079517952 -1.21793286498650 -1.19675380408041
 1  7.93517504850485  0.26981385788579 -2.03850399729973
 1  9.23805990319032  0.86535915241524  0.50420438293829
 1  9.00198802160216 -0.86137449284929  0.68254287288729
 1  10.53086479797980  0.07198196449645 -1.59122295289529
 1  9.47529402580258 -2.09161620592059 -2.18973393459346
 1  11.21442452715272 -2.44709122172217 -1.55273145914591
 1  9.89153662726273 -2.68151977457746 -0.57377946864686
 1  11.72286704890489  0.75010941844184  0.59658162156216
 1  11.50081049074907 -0.84746708480848  1.02778025102510
 1  12.84456019171917 -1.63428028942894 -0.77126546144614
 1  12.89774868086809  0.24174365336534 -1.60307867166717
 1  13.78108961216122  0.89840309580958  0.44818147864786
 1  14.12905899619962 -0.85708814611461  1.09257442714271
 1  15.49413180528053  0.47497735813581 -1.21237089658966
 1  16.33947594859486 -2.18250497639764 -0.00547814541454
 1  14.82600013181318 -1.97630582418242 -1.55247296769677
 1  16.49825788438844 -1.37810173877388 -1.84457656645665
 1  16.11673688338834  1.35618469116912  0.83231665266527
 1  16.52214391639164 -0.23212960866087  1.33507643934393
 1  18.34617380928093 -0.34642160596060 -0.51770777837784
 1  17.64141422262226  1.24983624212421 -1.03166665056506
 1  18.51864054685468  2.43251515111511  0.88887398829883
 1  18.73076935433543  0.77790140144014  1.70481683328333
 1  20.52199226592659  0.14357079287929  0.08363611401140
 1  19.95367220052005  3.08715770067007 -0.97819808930893
 1  21.29239535343534  1.86907278517852 -1.55119637363736
 1  19.55410624382438  1.40826222852285 -1.89408983228323
 1  21.47013702900290  1.55457476127613  2.12707214881488
 1  22.26877151765176  2.05361389258926  0.70386465266527
 1  20.98079061166117  3.39536321252125  1.26445237643764

