%nproc=4
%Mem=2GB
# td=(NStates=1) CAM-B3LYP/6-31G(d,p) 

TD

0 1
12 -7.22658432773277  0.62352059275928  0.09668771737174
 6 -4.79981886298630 -1.86867897919792  0.57642327722772
 6 -4.87817712401240  2.89651397869787  1.20978443564356
 6 -9.48104269306931  3.04846724612461 -0.22055338833883
 6 -9.56360738833883 -1.78781895689569 -0.81153926892689
 7 -5.10699348094809  0.49008026852685  0.77083460386039
 6 -4.28322592789279 -0.68403902430243  0.75047695049505
 6 -2.94114507570757 -0.29940521262126  1.20378581978198
 6 -3.07636792599260  1.28360949344935  1.65410821722172
 6 -4.44292237893789  1.57165754615462  1.12948921012101
 6 -2.96341413241324  1.38249473677368  3.20865439153915
 6 -1.87146142704270 -0.49032304240424  0.06738606440644
 6 -0.37249550355036 -0.41009924132413  0.49381796469647
 6  0.56485586398640 -0.76025945804580 -0.61818347014701
 8  0.24845539523952 -1.13575497929793 -1.73986326662666
 8  1.80432745774577 -0.44462936973697 -0.17325154525453
 7 -7.10134774327433  2.65932734003400  0.26384154095410
 6 -6.08303543454345  3.41837279117912  0.79491747574757
 6 -6.49651764146415  4.81201183158316  0.79491725622562
 6 -7.85206580198020  4.80144003070307  0.48498540554055
 6 -8.25787634083408  3.48409870117012  0.16654699389939
 6 -5.65989177037704  5.85399649094910  1.32940946614661
 6 -8.71144035643565  5.97498256625663  0.41291131303130
 6 -8.24232343014301  7.25424150845085  0.08274401210121
 7 -9.13463849954995  0.63858033633363 -0.46532823812381
 6 -9.94258591759176  1.70992167476748 -0.57742286648665
 6 -11.26209095199520  1.37424841524152 -1.06318106770677
 6 -11.26709523022302 -0.02788891159116 -1.20467973417342
 6 -9.85211509520952 -0.37768625672567 -0.83671297419742
 6 -12.36270451255126  2.25378765966597 -1.37260779167917
 6 -12.30504054975498 -0.88261932413241 -1.76034121132113
 6 -12.34340067206721 -0.90290417561756 -3.29923802920292
 7 -7.21435768786879 -1.39465882748275 -0.02014513321332
 6 -8.34952017431743 -2.25891183068307 -0.46675448134813
 6 -7.78715638313831 -3.59932411531153 -0.43776220522052
 6 -6.48881440344034 -3.58563287878788 -0.04270676277628
 6 -6.20002478067807 -2.18259441394139  0.21988360976098
 6 -8.60070041474147 -4.79614243314331 -0.80501004800480
 6 -5.22484902260226 -4.35158114341434  0.12039053895390
 8 -4.98706006780678 -5.51067372097210  0.02640867566757
 6 -4.20143355335534 -3.28531146524652  0.48306919891989
 6 -3.54994935913591 -3.68051413601360  1.84897607730773
 8 -3.58407206180618 -2.96559979277928  2.83373708900890
 8 -2.77079842774277 -4.86553470597060  1.62213030103010
 6 -2.12394503300330 -5.18467893719372  2.83551488848885
 6  2.89639341594159 -0.66540579827983 -1.26501187608761
 6  4.14789811221122 -0.39883373277328 -0.59641216991699
 6  5.16788039543954  0.29582290679068 -0.99430933113311
 6  5.13471088768877  1.27243177947795 -2.13434052515252
 6  6.42039849744974  0.40280908780878 -0.18738542474247
 6  7.69827756665667 -0.13334521642164 -0.94309397809781
 6  8.93337241964196 -0.16907664116412 -0.08295088928893
 6  10.22350324332433 -0.63996109440944 -0.89373576797680
 6  10.11044823102310 -2.09826916181618 -1.34841650315032
 6  11.40887200430043 -0.38438932953295  0.05536573527353
 6  12.77005417441744 -0.65969248514851 -0.61896243604360
 6  13.97204289208921 -0.19942670587059  0.22160937393739
 6  15.31529687368737 -0.17853046474647 -0.63506655695570
 6  15.65200930313031 -1.58775156095610 -0.90566784658466
 6  16.38067132113211  0.38681306740674  0.35411459615962
 6  17.82123782808281  0.46269439523952 -0.22389066896690
 6  18.80280568006801  1.24187603440344  0.72857521922192
 6  20.23173085288529  1.42516826142614  0.26213581718172
 6  20.32709293819382  2.19449509750975 -1.04062988438844
 6  21.09999787388739  1.95297966736674  1.35188188978898
 1 -4.17460771927193  3.74736311801180  1.55545006600660
 1 -10.21501525322532  3.93830141404140 -0.41711601420142
 1 -10.28655791759176 -2.39258931363136 -1.20442398989899
 1 -2.60523921462146 -0.86640630433043  1.89641688028803
 1 -2.39366900490049  1.91217970657066  1.06724109060906
 1 -2.11064478777878  1.06400188918892  3.60148036143614
 1 -3.28537332353235  2.26514597119712  3.74815938343834
 1 -3.66452743394339  0.53414778247825  3.54800868536854
 1 -1.78157068396840 -1.50829675007501 -0.25706069206921
 1 -1.94636883908391  0.04738682998300 -0.73690879247925
 1 -0.15693278727873  0.65654357785779  0.78680093199320
 1 -0.13252920662066 -1.05145812121212  1.39440231613161
 1 -4.90095226292629  6.20405558065807  0.52958474067407
 1 -6.27871254155415  6.73471327012701  1.39895458465847
 1 -5.20177340614061  5.48578374977498  2.09459313801380
 1 -9.68352585148515  5.97606054215422  0.47214505900590
 1 -8.93558419881988  8.08074666416642 -0.11857126382638
 1 -7.15056009260926  7.61145171437144  0.26515204460446
 1 -12.24128954175418  2.77508481378138 -2.38853515191519
 1 -13.24405961946194  1.58667430553055 -1.56307983168317
 1 -12.40508747014701  3.03732681808181 -0.60667216521652
 1 -12.19255178327833 -1.96628902710271 -1.40205041294129
 1 -13.35314131773177 -0.57450126312631 -1.38896625362536
 1 -13.21204167036704 -1.69894113331333 -3.75305830353035
 1 -12.51940211421142  0.05849712381238 -3.74610218521852
 1 -11.35190853845384 -1.31528447244724 -3.65701481698170
 1 -8.73916481238124 -4.66697954625463 -2.03955153655366
 1 -8.14395809680968 -5.82054216241624 -0.34001822992299
 1 -9.62112427822782 -4.80560734773477 -0.49000725692569
 1 -3.53213334533453 -3.19548113261326 -0.26186283928393
 1 -1.33587467746775 -4.33655203250325  3.23815050205021
 1 -2.89414460186019 -5.54978562096210  3.58656587868787
 1 -1.43235466196620 -6.03015719281928  2.40841754465447
 1  2.69122379347935 -1.56282597249725 -1.63000707700770
 1  2.90285198539854  0.09513243164316 -1.98685070487049
 1  4.46223544784478 -1.03436144234423  0.28585096129613
 1  4.21935287158716  1.50868196449645 -2.56864020632063
 1  5.64484778317832  2.20137452765277 -1.85989034363436
 1  5.78035335813581  0.87193752395239 -2.89062036133613
 1  6.43866688998900  1.50566679437944 -0.13064556685668
 1  6.24919826782678 -0.10729397829783  0.84439544664466
 1  7.55610935303530 -1.16507757945795 -1.24478860756076
 1  7.81200273127313  0.60704758125813 -1.71085123202320
 1  9.25525162236224  0.82512512901290  0.28224218671867
 1  8.75036285908591 -0.77805616101610  0.72899751835183
 1  10.59346105760576  0.19945471177118 -1.59056288688869
 1  9.25082157855786 -2.38422546684668 -1.97339230043004
 1  11.10525361006101 -2.36527303990399 -1.97534372037204
 1  10.18368584218422 -2.71551317391739 -0.39981207190719
 1  11.55113987618762  0.52638704620462  0.58944090749075
 1  11.34256466616662 -1.15851818991899  1.02124959795980
 1  12.96147188288829 -1.64592145354535 -1.26179451435144
 1  12.81212011801180 -0.21626214721472 -1.59074743854385
 1  13.96301780498050  0.88365162066207  0.76345300580058
 1  13.84796088638864 -0.78514095139514  1.08467363706371
 1  15.16224861696170  0.31517137753775 -1.59307896739674
 1  15.72426442744274 -2.25911263716372  0.01266366876688
 1  14.82622015381538 -2.12085027862786 -1.15481320172017
 1  16.59492755135514 -1.87111103970397 -1.53992610141014
 1  16.24030924062406  1.47863693639364  0.65197861886189
 1  16.37478918091809 -0.10752714841484  1.33360629232923
 1  18.24999419131913 -0.50354731853185 -0.38257426502650
 1  17.72536261746175  1.03957521602160 -1.15876936083608
 1  18.39531821462146  2.29440133973397  1.11710681158116
 1  18.52195847324732  0.66462007330733  1.62395874747475
 1  20.56903697039704  0.41231766756676 -0.06152840244024
 1  19.79891672497250  3.19713869876988 -0.86306657615762
 1  21.37622373627363  2.43248912681268 -1.23856511051105
 1  19.80113094629463  1.45788719101910 -1.73281370467047
 1  21.19054907020702  1.46325562936294  2.43513295489549
 1  22.14419906040604  1.89357788898890  0.89761402760276
 1  20.94076660926093  3.09510318651865  1.54287021822182

