%nproc=4
%Mem=2GB
# td=(NStates=1) CAM-B3LYP/6-31G(d,p) 

TD

0 1
12 -7.15479714901490  0.55501374207421  0.22967101570157
 6 -4.85184406550655 -1.97005911721172  0.56898253315332
 6 -4.90160946724672  2.80332465976598  1.27123058025803
 6 -9.44153874267427  3.18245064446445 -0.39747108010801
 6 -9.47136816441644 -1.74050422542254 -1.04292240724072
 7 -5.18046082768277  0.41128238873887  0.82122964336434
 6 -4.40371797709771 -0.63547416781678  0.83735563836384
 6 -3.00870183138314 -0.42593786588659  1.15524096529653
 6 -3.10116040524052  1.01744287678768  1.73575638203820
 6 -4.47632571927193  1.50029040944094  1.10225648684869
 6 -3.15918370937094  1.13748023532353  3.31321484758476
 6 -1.96753103400340 -0.67771178127813  0.21777110291029
 6 -0.52424067806781 -0.44481271267127  0.57435601850185
 6  0.43670304870487 -0.67611104320432 -0.53237488928893
 8  0.18489903960396 -0.96677808160816 -1.69559884018402
 8  1.66364338933893 -0.48941384818482 -0.08313253335334
 7 -7.09060666916692  2.59783119041904  0.30472562936294
 6 -6.08193532453245  3.33815476937694  0.83042102610261
 6 -6.43640162986299  4.84520515091509  0.93484124862486
 6 -7.67963855925593  4.80559044574458  0.30744765176518
 6 -8.13290384358436  3.53904419571957 -0.02679234003400
 6 -5.48274405560556  5.86937802910291  1.45057158235824
 6 -8.55836504890489  5.92925799379938  0.22840286218622
 6 -8.32321151895190  7.26544262856286  0.18722446014601
 7 -9.10304534023402  0.66346282458246 -0.58582028732873
 6 -9.85847750675067  1.82035271787179 -0.67821294549455
 6 -11.22229697259726  1.40948193859386 -1.12224697429743
 6 -11.22709122982298  0.05842972027203 -1.32179144534453
 6 -9.87304718841884 -0.42738122622262 -0.95366466936694
 6 -12.29687792989299  2.48978125902590 -1.52992352325233
 6 -12.32686273197320 -0.79913097529753 -1.88296347354735
 6 -12.05597192919292 -1.12456634183418 -3.41758986438644
 7 -7.20638689078908 -1.38626798839884 -0.13268638733873
 6 -8.26507172947295 -2.24226016551655 -0.55202300820082
 6 -7.89319698719872 -3.57812199509951 -0.54062249124912
 6 -6.51073659565957 -3.50054436993699 -0.03217570967097
 6 -6.19519429762976 -2.21852800730073  0.17696931833183
 6 -8.55754609930993 -4.93754657355736 -0.84888443544354
 6 -5.29114565226523 -4.31883786908691  0.22620112001200
 8 -5.20987234903490 -5.55906856045605  0.17204323912391
 6 -4.20651406140614 -3.33007594169417  0.49595048704870
 6 -3.49745410961096 -3.63326941154115  1.83335451515152
 8 -3.65587924252425 -3.04844807760776  2.87444115941594
 8 -2.80386173407341 -4.80669882238224  1.70623871187119
 6 -2.35839847834783 -5.27374784408441  2.88821015801580
 6  2.73813759035904 -0.75078433613361 -1.00516589148915
 6  4.11683500590059 -0.38697254665467 -0.31707423612361
 6  4.97405101250125  0.44885821032103 -0.90377027722772
 6  4.84346176277628  1.38313284958496 -2.09252634373437
 6  6.39135559315932  0.55521432833283 -0.23023971017102
 6  7.64271201010101 -0.15212709460946 -0.78163783248325
 6  8.96831591399140 -0.03925365886589  0.03515092089209
 6  10.19273016601660 -0.44252135043504 -0.74039043344334
 6  10.17568475467547 -1.94303363826383 -1.19613127462746
 6  11.47292840994099 -0.12480337093709  0.02361255995600
 6  12.78326549554955 -0.41175769166917 -0.71721226102610
 6  14.04104979277928  0.05037827462746  0.22423963696370
 6  15.37246259025903 -0.12651526322632 -0.54400745104510
 6  15.64698880108011 -1.61434422022202 -0.92739001880188
 6  16.58482173617362  0.39775416151615  0.35790497519752
 6  17.90172587688769  0.52908103390339 -0.31340962086209
 6  18.97277267676768  1.11577342414241  0.57437979967997
 6  20.34553223302330  1.20447619221922  0.03217282088209
 6  20.41969219811981  2.13486913491349 -1.22340816221622
 6  21.36649452355235  1.70256462586259  1.12788949054906
 1 -4.03829408790879  3.51989037073707  1.60931545254525
 1 -10.17870162186219  3.88783636753675 -0.64662896549655
 1 -10.16669593139314 -2.58021807650765 -1.18413196069607
 1 -2.87780647134713 -1.11379104280428  2.20627786638664
 1 -2.18441807980798  1.49229771837184  1.21663603010301
 1 -2.17740146344634  0.68511400040004  3.70216042944294
 1 -3.21451623782378  2.18790824742474  3.61252582008201
 1 -3.99434041524152  0.57559192689269  3.72611649614962
 1 -2.18200072697270 -1.80565648604861 -0.28473345934593
 1 -2.23869807200720 -0.27415532423242 -0.76574167576758
 1 -0.60458755275528  0.66652457595760  1.08021027292729
 1 -0.17037299099910 -1.06171914731473  1.59050192609261
 1 -4.89053122082208  6.04327950305031  0.63322510471047
 1 -6.14592926322632  6.43737353615361  1.76983167236724
 1 -4.85938916771677  5.50892606400640  2.34785846454645
 1 -9.66080357925792  5.99270220632063  0.37237508200820
 1 -9.04664530493049  8.00914950445044  0.08044863816382
 1 -7.42220725732573  7.68361893109311  0.07297282668267
 1 -12.05626103890389  3.08201550685069 -2.52648894729473
 1 -13.16658187168717  1.89743538163816 -1.73639716341634
 1 -12.62249921132113  3.17669075447545 -0.69210070807081
 1 -12.34494702280228 -1.65923832203220 -1.24532474037404
 1 -13.22759876347635 -0.43809762276228 -1.67538489548955
 1 -12.71512197839784 -1.84152539173917 -3.89468246594659
 1 -12.10368054205421 -0.12686141204120 -3.98036561156116
 1 -11.11346469406941 -1.50519346334633 -3.59461857735774
 1 -8.85775667156716 -5.03002585088509 -1.98301588298830
 1 -7.91030473147315 -5.82887299549955 -0.95285951405141
 1 -9.39661182698270 -5.10850763776378 -0.15371362756276
 1 -3.43191332333233 -3.32058364286429 -0.43083973697370
 1 -1.70179126912691 -4.51507988528853  3.34601128812881
 1 -3.06974216161616 -5.42495313771377  3.62600982308231
 1 -1.85325675217522 -6.10645482258226  2.71894859775978
 1  2.59352402350235 -1.60442013191319 -1.70948502480248
 1  2.59318101830183 -0.04657173877388 -1.88086010581058
 1  4.22162138643864 -1.05598360456046  0.53762613881388
 1  3.68092902920292  1.71998309460946 -2.30817415971597
 1  5.69077237563756  2.26140053025303 -1.99302365696570
 1  5.33467879067907  0.85792612281228 -2.99443074237424
 1  6.75656868016802  1.57607383508351 -0.31133363566357
 1  6.31883523152315  0.30791754285429  0.82952395949595
 1  7.46143988608861 -1.15178625032503 -0.99615374407441
 1  7.85525705670567  0.28214509100910 -1.69116926382638
 1  9.12269836703670  0.92190480698070  0.44606856935694
 1  8.90780860366037 -0.51520987638764  0.97139175777578
 1  10.05009672117212  0.15434020032003 -1.68526235683568
 1  9.45431192759276 -2.15320236453645 -1.79106406760676
 1  11.13939702440244 -2.15545205780578 -1.58594478047805
 1  10.10105757935794 -2.47383900650065 -0.55176726742674
 1  11.45098986118612  0.95891029852985  0.26648861226123
 1  11.37187759745975 -0.82179451755176  0.89483695669567
 1  12.82156789248925 -1.44922178357836 -0.86527486238624
 1  13.02890179617962  0.17224670367037 -1.64836320012001
 1  13.94704620782078  1.07926118161816  0.67440410091009
 1  14.19075516581658 -0.66487892519252  1.07509267896790
 1  15.33520591269127  0.66034589498950 -1.39211887138714
 1  15.68286028702870 -2.42703942984298 -0.17844544214421
 1  14.75616314811481 -1.91088928252825 -1.47162488288829
 1  16.48769682828283 -1.66820074867487 -1.70196230503050
 1  16.38712392209221  1.35125419811981  0.95933935493549
 1  16.84871657365737 -0.36586298199820  1.06261919361936
 1  18.00634982688269 -0.37295425922592 -0.60872688028803
 1  18.01355143634364  1.28828008650865 -1.08095157905791
 1  18.55879456225622  2.20757265686569  0.81957705860586
 1  18.87030330773077  0.47643125442544  1.55398174977498
 1  20.68701876857686  0.29739617541754 -0.54177642724272
 1  19.91109794309431  2.98753773867387 -0.83522379187919
 1  21.55105121902190  2.11583746164616 -1.56741799579958
 1  19.72182301550155  1.52357375967597 -1.92364278757876
 1  21.46527654295430  0.93997330113011  1.97888733033303
 1  22.25623026352635  1.71751028222822  0.48030229642964
 1  20.89748228082808  2.50944462066207  1.53887981918192

