%nproc=4
%Mem=2GB
# td=(NStates=1) CAM-B3LYP/6-31G(d,p) 

TD

0 1
12 -7.17493916321632  0.54057229792979  0.15363341194119
 6 -4.83690257135714 -1.95923803510351  0.37223285818582
 6 -4.69077838413841  2.83710803810381  1.23017647484748
 6 -9.38413300210021  3.13910631003100 -0.30975230823082
 6 -9.51329235683568 -1.78148832383238 -0.83101121612161
 7 -5.02495527712771  0.43400466096610  0.71895941634163
 6 -4.29431703700370 -0.71050167056706  0.71254315711571
 6 -2.91034199539954 -0.46740201230123  1.27502294349435
 6 -2.99636992619262  1.01007213971397  1.76203901030103
 6 -4.32592067876788  1.46087646804680  1.18654491569157
 6 -2.94912270327033  1.14434092139214  3.28050157625763
 6 -1.88439272017202 -0.55377938803880  0.06413573937394
 6 -0.48468672267227 -0.52901113251325  0.52173075597560
 6  0.42947232563256 -0.67545097719772 -0.59856150795080
 8  0.15143569326933 -1.11634303810381 -1.72828210851085
 8  1.66958398339834 -0.45845075187519 -0.19157337743774
 7 -6.99407701620162  2.59397080438044  0.30239539633963
 6 -5.93049018001800  3.35151610551055  0.77109509350935
 6 -6.41362935263526  4.78873950435043  0.77542530703070
 6 -7.70151074647465  4.83219310601060  0.36067297429743
 6 -8.14342489568957  3.44947523882388  0.03727406660666
 6 -5.51416719791979  5.78971006230623  1.31752827802780
 6 -8.54470368276828  6.05181024902490  0.26494651655166
 6 -8.30429962776278  7.33485957025703  0.13075881358136
 7 -9.07765280098010  0.69403588188819 -0.53277498279828
 6 -9.81589324832483  1.84378506110611 -0.58533365756576
 6 -11.15563030593059  1.51666265666567 -1.00208495809581
 6 -11.25208372907291  0.14784866216622 -1.22843210941094
 6 -9.88829871357136 -0.42368085618562 -0.78072737563756
 6 -12.25780402250225  2.56434871577158 -1.33691422232223
 6 -12.40903094879488 -0.60308137033703 -1.68692386958696
 6 -12.37695402740274 -0.83241712691269 -3.22168027342734
 7 -7.25208146024602 -1.41746110771077 -0.17211032973297
 6 -8.27049227152715 -2.22079801930193 -0.47178498439844
 6 -7.83656132363236 -3.64581876477648 -0.50880930993099
 6 -6.52240776277628 -3.54089840534053 -0.18107059915992
 6 -6.20590536873687 -2.22144829932993  0.02690431183118
 6 -8.73714405910591 -4.91461428032803 -0.89223877087709
 6 -5.33865040274027 -4.34223020832083  0.15640414031403
 8 -5.11846320812081 -5.57545019861986  0.31621765656566
 6 -4.21506491649165 -3.33063599769977  0.54791568356836
 6 -3.45920028422842 -3.65930201480148  1.86203738343834
 8 -3.59132278687869 -3.05067830063006  2.90046376167617
 8 -2.64633598149815 -4.71251940444044  1.68984707270727
 6 -2.05382802130213 -5.28114858415842  2.92429376637664
 6  2.72803658025803 -0.74458371607161 -1.23237861276128
 6  4.05122844524452 -0.51153500290029 -0.62878540724072
 6  5.11806541394139  0.26164948944894 -1.03977387758776
 6  5.07678509510951  1.09756429272927 -2.21401849294929
 6  6.37477393499350  0.29069787668767 -0.22222890909091
 6  7.55181292019202 -0.33652553445345 -0.98125779447945
 6  8.90086916931693 -0.09777951145115 -0.15921851605161
 6  10.14296518951895 -0.61582868116812 -0.88804519891989
 6  10.25051223742374 -2.01539087398740 -1.50166182768277
 6  11.40849196629663 -0.42094298489849  0.02424262296230
 6  12.67098426742674 -0.55670218611861 -0.64711525132513
 6  13.87580326812681  0.10946418321832  0.08711592459246
 6  15.30648599259926 -0.14802741444144 -0.39215226552655
 6  15.63946804900490 -1.57431021682168 -0.78414569436944
 6  16.45172842684268  0.38116250235024  0.55607479217922
 6  17.71310701500150  0.64475260106011 -0.06192447234723
 6  18.75460085958596  1.36755860266027  0.75305766746675
 6  20.13970164996500  1.43829957455746  0.21356095969597
 6  20.29727995689569  2.28626427442744 -1.04816063746375
 6  21.13925179927993  1.96187055645565  1.24454115571557
 1 -4.02665292379238  3.52317069876988  1.74583910491049
 1 -9.90842459415942  4.08941652555256 -0.66765106770677
 1 -10.38729799159916 -2.47382743744374 -1.17510105760576
 1 -2.58902759345935 -1.20404006770677  2.08713595219522
 1 -2.26723636163616  1.46642513111311  1.13724809130913
 1 -1.89359308260826  0.73063855285529  3.47540775417542
 1 -2.90344513071307  2.20849030563056  3.52537710521052
 1 -3.74816579777978  0.58929329702970  4.00720460496050
 1 -1.95047757465747 -1.47684360476048 -0.72481746774677
 1 -2.10972517471747  0.20207229852985 -0.59153425502550
 1 -0.26985407940794  0.29555747924793  0.98287053895390
 1 -0.35959191289129 -1.32101507690769  1.49143201910191
 1 -4.90523269096910  6.21436661176118  0.66712849504950
 1 -6.16940161046104  6.77814761356136  1.59639432863286
 1 -4.86241947074707  5.58371354275428  2.19724340304030
 1 -9.60268776767677  5.91900483658366  0.48998684318432
 1 -9.19998063846385  8.25938452795280  0.26691728502850
 1 -7.20276531313131  7.62490305950595 -0.49848431903190
 1 -12.07940335313531  3.18635594089409 -2.16688298669867
 1 -13.18614382788279  2.10955659375938 -1.49631315501550
 1 -12.34337129852985  3.23897698309831 -0.50085158315832
 1 -12.34440696879688 -1.45307770597060 -1.21741194909491
 1 -13.34671067466747 -0.22879669266927 -1.50819817681768
 1 -13.20597106330633 -1.40228146734673 -3.53690668836884
 1 -12.16127630163016  0.05538681278128 -3.84040161516152
 1 -11.65285863346335 -1.51732467646765 -3.57121623712371
 1 -9.07166806270627 -5.02418526682668 -2.00485806720672
 1 -8.11569527052705 -5.75580568876888 -0.77721194929493
 1 -9.67513967976798 -4.71947873487349 -0.30393865006501
 1 -3.42634276627663 -3.33298488298830 -0.34293094609461
 1 -1.49438052805281 -4.46863524082408  3.40153684068407
 1 -2.80102528992899 -5.44656529892989  3.73709093119312
 1 -1.31393281978198 -6.15697987508751  2.52333903680368
 1  2.45400007110711 -1.80407009690969 -1.73054713101310
 1  2.61707340754075  0.08013093149315 -2.06857887768777
 1  4.32937216151615 -1.44056206240624  0.16366874307431
 1  4.07550848714872  1.53541463776378 -2.57174051635164
 1  5.88999229762976  2.02307669786979 -2.31543589818982
 1  5.25512083488349  0.60729105930593 -3.29608090739074
 1  6.58746176947695  1.17850407810781  0.04328182588259
 1  6.31228457645765 -0.26680992989299  0.71409241634163
 1  7.23324706680668 -1.41580265196520 -0.94276840554055
 1  7.61176270727073  0.12583946044604 -2.08434858175818
 1  8.91504760196019  1.14445706220622  0.04295825832583
 1  8.86881470427043 -0.76505486088609  0.68430304890489
 1  10.17764947644764 -0.03131836553655 -1.70137396799680
 1  9.41578807520752 -2.12915996029603 -2.15250021122112
 1  11.20682376707671 -2.19448596119612 -2.03902008800880
 1  10.14691216481648 -2.78250987358736 -0.73794588528853
 1  11.25698046024602  0.66294070157016  0.52759472287229
 1  11.59156956665666 -1.23665600370037  0.84209168216822
 1  12.92086782248225 -1.64670153155316 -0.80563889878988
 1  12.45453435943594  0.10105958495850 -1.52495085888589
 1  13.66539804300430  1.27644089958996  0.39857651815182
 1  13.84794088438844 -0.12347478477848  1.30782595229523
 1  15.48896128822882  0.35113497389739 -1.39244890439044
 1  15.71171317231723 -2.15116184208421  0.18881128352835
 1  14.84051158295830 -1.94927312091209 -1.57607532793279
 1  16.66443450205021 -1.79783371197120 -1.18628073687369
 1  15.96381159085908  1.43705277797780  0.85649907090709
 1  16.31636333833383 -0.04463085878588  1.49072200390039
 1  18.20964015591559 -0.26741370517052 -0.35125113271327
 1  17.65565564676468  1.32825408390839 -0.96380986488649
 1  18.42016069886989  2.46357825742574  0.83811891279128
 1  18.81144742214221  0.91173478477848  1.85329168076808
 1  20.47911797849785  0.39034547034703 -0.12387463706371
 1  20.08275510881088  3.21137012191219 -0.80455072457246
 1  21.28648476237624  2.33129900780078 -1.49308056205621
 1  19.54386521972197  1.92275367766777 -1.69755017831783
 1  21.09863987928793  1.30561986578658  2.14528396999700
 1  22.07293193369337  2.16128465966597  0.90060432663266
 1  20.91828436103610  3.00621429762976  1.58794472567257

