%nproc=4
%Mem=2GB
# td=(NStates=1) CAM-B3LYP/6-31G(d,p) 

TD

0 1
12 -7.23137480678068  0.60682892359236  0.08079612821282
 6 -4.74447332843284 -1.88324043534353  0.60344597949795
 6 -4.87218652495250  2.91502582988299  1.17058051525152
 6 -9.52763735253525  3.14879727912791 -0.22777411041104
 6 -9.51117214481448 -1.84625480048005 -0.76635475047505
 7 -5.08704148574857  0.47790905140514  0.76477399779978
 6 -4.27514511981198 -0.64724534493449  0.79347124992499
 6 -2.85942690389039 -0.31346661876188  1.18405384658466
 6 -2.93816410561056  1.15454658715872  1.63591639803980
 6 -4.39962804950495  1.57923830423042  1.12821908310831
 6 -2.76376416741674  1.32680916821682  3.10896442254225
 6 -1.91540582148215 -0.53066707680768 -0.02351302550255
 6 -0.44815306930693 -0.37388561996200  0.52230081298130
 6  0.48837821622162 -0.64880831293129 -0.61987363916392
 8  0.12439298899890 -1.03759516331633 -1.73296257655766
 8  1.75978300330033 -0.38054296109611 -0.31239545964596
 7 -7.19365697419742  2.57778918621862  0.37192234903490
 6 -6.10463759475948  3.35049600350035  0.78694667866787
 6 -6.48269625932593  4.72435306570657  0.82987075157516
 6 -7.81640223562356  4.82508239493949  0.46966387338734
 6 -8.19400995419542  3.46795708700870  0.13855419461946
 6 -5.57565334653465  5.88338943024302  1.30999752495250
 6 -8.67644685708571  6.06411147914791  0.31383140504050
 6 -8.21317051485148  7.21492757705771  0.04232997069707
 7 -9.25722075777578  0.70578705700570 -0.45102680798080
 6 -9.97085874487449  1.77905858845885 -0.58762388658866
 6 -11.33621836473647  1.41524251465147 -1.02758750835083
 6 -11.27785630633063  0.14236811411141 -1.09283855005501
 6 -9.93701358505851 -0.42357084518452 -0.79550885378538
 6 -12.41716995909591  2.36750903180318 -1.12821335223522
 6 -12.31406145184518 -0.79445050725072 -1.77203238043804
 6 -12.18008434043404 -0.94690857605761 -3.37196530193019
 7 -7.24155040714071 -1.34387374897490 -0.14829794849485
 6 -8.24487971027103 -2.24968090759076 -0.57138494439444
 6 -7.79682735023502 -3.69656383928393 -0.52416084508451
 6 -6.46902242424243 -3.50270458595860 -0.10469296139614
 6 -6.13580835903590 -2.14166032053205  0.08377999939994
 6 -8.45944628932893 -4.87087990689069 -0.89260880788079
 6 -5.31403794149415 -4.33496948224823  0.16037453735374
 8 -5.19605096689669 -5.53401605520552  0.03208924372437
 6 -4.15367877787779 -3.30598353245324  0.56765765776578
 6 -3.45638000220022 -3.69990607520752  1.90413159285929
 8 -3.80170382498250 -3.17490072287229  2.95300901620162
 8 -2.55034638253825 -4.70403855635564  1.75563365136514
 6 -2.09188182668267 -5.25758622792279  2.95310664766477
 6  2.81414519111911 -0.61466072377238 -1.33961933683368
 6  4.07943126552655 -0.36537038643864 -0.62387491619162
 6  5.19398300570057  0.40550387488749 -1.01496139633963
 6  5.31431884848485  1.04036857315732 -2.35299239033903
 6  6.43702015961596  0.28116692359236 -0.18080476667667
 6  7.62219995889589 -0.31239312121212 -0.90393006170617
 6  8.93228231063106 -0.32933266676668 -0.06415901010101
 6  10.18673956695670 -0.75073217151715 -0.75509190359036
 6  10.06682386858686 -2.30059939483948 -1.12774443594359
 6  11.46856797389739 -0.35194608520852  0.04792499119912
 6  12.70544771377138 -0.49984650055006 -0.65229576937694
 6  13.87715340314031 -0.05807257045705  0.13293050605061
 6  15.40153549754976 -0.17212982468247 -0.52885593589359
 6  15.70838494069407 -1.60083286908691 -1.14452173197320
 6  16.36724997899790  0.35044943104310  0.42550173487349
 6  17.78939464376438  0.61119924572457 -0.18622690259026
 6  18.82042744224422  1.31177302410241  0.73913627532753
 6  20.22252993279328  1.44002974757476  0.31922152575258
 6  20.24949517841784  2.29978562656266 -0.96750257165717
 6  21.08133600770077  1.98637300670067  1.39601630323032
 1 -4.01886214471447  3.66299468116812  1.29459398039804
 1 -10.14715846754676  4.09897748164816 -0.47935223782378
 1 -10.46584584638464 -2.48190824552455 -1.11482503000300
 1 -2.55108379907991 -0.89818948264827  2.06354359295930
 1 -2.27351698969897  1.92101058965897  1.12935730223022
 1 -1.76762048534853  0.97721321032103  3.63612382578258
 1 -2.98239302550255  2.35786524312431  3.44207877537754
 1 -3.51101208240824  0.70584495219522  3.48991287578758
 1 -2.06361888878888 -1.43352927332733 -0.66523150915092
 1 -2.11059526172617  0.20290238153815 -0.83505860746075
 1 -0.30998809280928  0.61194911841184  0.90015226712671
 1 -0.27097305100510 -1.10911388678868  1.19523239913991
 1 -4.96311847954795  6.30672584768477  0.38713049524953
 1 -6.20522519281928  6.60050984978498  1.69591428062806
 1 -4.82312554135414  5.68055322672267  2.23498717741774
 1 -9.73554105300530  5.75805874197420  0.72410025452545
 1 -9.06287692809281  7.92375096459646 -0.00050945764576
 1 -7.14413945054505  7.23579414861486 -0.33908837943794
 1 -12.08551396419642  3.20347765306531 -1.96539283768377
 1 -13.35225043854385  1.90146578467847 -1.25895941964196
 1 -12.70598756015602  2.95405849124913 -0.26452795079508
 1 -12.35627815591559 -1.78314071227123 -1.36345655355536
 1 -13.30379638323832 -0.50539435243524 -1.45686304330433
 1 -12.98827929412941 -1.49105034423442 -3.83407640534053
 1 -12.43667384138414  0.05140641474147 -3.98104567956796
 1 -11.12456580418042 -1.17345028902890 -3.58743785928593
 1 -8.68273916981698 -5.11753460176018 -2.07267484888489
 1 -7.85965966696670 -5.80777088528853 -0.66554078217822
 1 -9.42133429922992 -5.16675346234623 -0.43027128332833
 1 -3.48148828082808 -3.58445002950295 -0.27420407340734
 1 -1.32668375837584 -4.60777915521552  3.41809849684968
 1 -2.70882607000700 -5.63919456185619  3.70518774087409
 1 -1.73241466796680 -6.28806298339834  2.78420512341234
 1  2.74333900500050 -1.52926261616162 -1.72626670297030
 1  2.56050775097510  0.22268518691869 -2.09783180298030
 1  3.91677090139014 -0.69371737793779  0.44815719191919
 1  4.24668560486049  1.18217931423142 -2.79986332863286
 1  5.85726902530253  2.04236862706271 -2.25556991159116
 1  5.85838116091609  0.58316864706471 -3.18479977927793
 1  6.77446046934693  1.44833106080608  0.01562906060606
 1  6.39261260926093 -0.43508675757576  0.64519552665266
 1  7.34101784388439 -1.29400047174718 -1.39058318701870
 1  7.73676520752075  0.26884376087609 -1.64256440334033
 1  9.06188228542854  0.77978059455946  0.21851581408141
 1  8.72293011581158 -0.84066242164216  0.68707332593259
 1  10.20530224172417 -0.24332956665667 -1.56092992359236
 1  9.05189168556856 -2.35808285258526 -1.65174013521352
 1  10.85229831453145 -2.56205271787179 -1.91151733773377
 1  10.03906137973797 -2.97146876947695 -0.24123621432143
 1  11.18642340454045  0.65021942944294  0.41118308170817
 1  11.69822023172317 -1.16422876097610  0.91050852385239
 1  12.84224996069607 -1.53176003740374 -1.05895423032303
 1  12.63120202620262  0.11035051405140 -1.55023338713871
 1  13.62556405960596  0.94945820132013  0.46851351185118
 1  14.04221031133113 -0.82027446474647  1.04758992869287
 1  15.38812120422042  0.49914977537754 -1.42999265876588
 1  15.89151115211521 -2.39392611851185 -0.19617721532153
 1  14.96127365916592 -2.14797299089909 -1.79587730813081
 1  16.62467052565257 -1.61332526112611 -1.73031514031403
 1  16.08232344204420  1.28000707340734  0.93377679867987
 1  16.38921062306231 -0.40203659935994  1.39601253295330
 1  18.16894608650865 -0.41849881368137 -0.48660466806681
 1  17.81705178637864  1.27187844634463 -1.00736422032203
 1  18.25820450325033  2.37881978157816  0.84529963086309
 1  18.85997227462746  0.70794440574057  1.62977932953295
 1  20.69666973367337  0.27000343614361  0.13999174957496
 1  19.97690452375238  3.33990297519752 -0.57994826432643
 1  21.22801891579158  2.32192807070707 -1.51261251525152
 1  19.61988282148215  1.92769417171717 -1.65551597489749
 1  20.89583959925993  1.38819812361236  2.29594903650365
 1  22.20479512001200  2.04497302850285  1.20946521272127
 1  21.17702023462346  3.10200387658766  1.50239617081708

