%nproc=4
%Mem=2GB
# td=(NStates=1) CAM-B3LYP/6-31G(d,p) 

TD

0 1
12 -7.06938860816082  0.58090633133313 -0.03622557395740
 6 -4.80213909500950 -1.96287839913991  0.47817345224522
 6 -4.80441974827483  2.73616794409441  1.33787724492449
 6 -9.30785537433743  3.09961236063606 -0.38920025302530
 6 -9.48941996959696 -1.72998317331733 -0.84606272127213
 7 -5.10381316291629  0.43167442794279  0.85641316171617
 6 -4.38544614991499 -0.73259387978798  0.90706260906091
 6 -2.90759172037204 -0.37650292239224  1.32476791799180
 6 -3.03434372357236  1.04148528102810  1.80730353675368
 6 -4.41093918061806  1.40273065346535  1.31148740994099
 6 -2.96977476847685  1.14225071237124  3.24862838893889
 6 -1.93394767566757 -0.57302131223122  0.12641196699670
 6 -0.45230348434843 -0.35818404980498  0.54421300420042
 6  0.54437381578158 -0.50859429152915 -0.57408906070607
 8  0.25117566726673 -0.90480188398840 -1.64402368266827
 8  1.70808783378338 -0.26855176197620 -0.13275749584959
 7 -7.04637224572457  2.53250465776578  0.34649980678068
 6 -6.10671780278028  3.31973292719272  0.84640262426243
 6 -6.42297028672867  4.77639827022702  0.88739650415041
 6 -7.67596819221922  4.78264815151515  0.35717262426243
 6 -8.08179873307331  3.48525881718172  0.10239057825783
 6 -5.53496927812781  5.83238432973297  1.39047557275728
 6 -8.61787099949995  5.92415748374837  0.29192921482148
 6 -8.20657985578558  7.18147423172317  0.08224396209621
 7 -9.03037807350735  0.67339381768177 -0.57576928222822
 6 -9.86795845484548  1.81601228382838 -0.66845196939694
 6 -11.14292903580358  1.51419240964096 -1.17326207580758
 6 -11.18567708840884  0.07840171747175 -1.34792405860586
 6 -9.88068795249525 -0.44415290339034 -0.80560986388639
 6 -12.18877711981198  2.43362564346435 -1.51040157105711
 6 -12.30436048174817 -0.76361742394239 -1.73906908410841
 6 -12.27087341934194 -0.98385227042704 -3.29188729412941
 7 -7.19545579767977 -1.42019138073807 -0.21931505020502
 6 -8.18696391869187 -2.30991693119312 -0.46830463636364
 6 -7.78118578607861 -3.68458264116412 -0.44331276027603
 6 -6.49408493049305 -3.60839515501550 -0.17859035113511
 6 -6.20793557175718 -2.27084323882388  0.02018363976398
 6 -8.60981132583258 -4.88918173707371 -0.72100164716472
 6 -5.25548208590859 -4.40861684698470  0.14705320522052
 8 -4.98943030483048 -5.61133378697870  0.07527356215622
 6 -4.15826923692369 -3.36989992409241  0.54791568356836
 6 -3.56890125432543 -3.64369045364536  1.89466064576458
 8 -3.82963661826183 -3.10663389618962  2.91186490179018
 8 -2.61096244414441 -4.62464061656166  1.81111919991999
 6 -1.94670730923092 -4.98073854315431  3.08025936293629
 6  2.74232800940094 -0.50339959765977 -1.19078445334533
 6  4.06335965836584 -0.36369021842184 -0.56799932863286
 6  5.10798440584058  0.44050737523752 -1.06716661686169
 6  4.96256367296730  1.23035757205721 -2.29222631373137
 6  6.38792525012501  0.45783459035904 -0.25949263546355
 6  7.54908264716472 -0.19353123502350 -0.99010867956796
 6  8.83823290569057 -0.05403513701370 -0.16390898509851
 6  10.11629252225223 -0.56505360366037 -1.00485688008801
 6  9.86975416161616 -2.03900323522352 -1.44235589708971
 6  11.36939805690569 -0.42575346594659 -0.10983078437844
 6  12.73069023802380 -0.60217673357336 -0.80437097689769
 6  13.86283197099710 -0.21445820902090  0.14249146214621
 6  15.24963030703070 -0.25543815551555 -0.52079512981298
 6  15.63494759695970 -1.61211399719972 -1.01492877267727
 6  16.25075832983298  0.37797218331833  0.42104128882888
 6  17.73058876317632  0.54816294209421 -0.17052533243324
 6  18.68036343584359  1.20378222502250  0.75285764746475
 6  20.22097977777778  1.35069081368137  0.22579218281828
 6  20.35860608950895  2.28147379537954 -0.93169899129913
 6  21.11927980208021  1.82352672207221  1.42610931253125
 1 -4.14683494199420  3.51535991769177  1.66147066806681
 1 -10.10060381208121  3.91734931883188 -0.64786908950895
 1 -10.38330759255926 -2.37858791349135 -1.03516706420642
 1 -2.69211790249025 -0.98126779047905  2.29533677227723
 1 -2.30834047204720  1.63405189378938  1.40638500500050
 1 -2.04905862916292  0.88482397139714  3.65752596599660
 1 -3.17691247744774  2.09993945054505  3.85145971347135
 1 -3.69073005420542  0.46855122282228  3.70145402990299
 1 -2.26098862576258 -1.58872479287929 -0.54907989398940
 1 -2.29078328052805  0.02463455475548 -0.66675177677768
 1 -0.23468056205621  0.48559648314831  1.25039729162916
 1 -0.03157911161116 -1.17945092049205  1.21015389128913
 1 -4.78847101480148  6.19749492459246  0.71428321052105
 1 -5.80982565286529  6.90471026982698  1.91234592379238
 1 -4.88231145994599  5.43972914431443  2.30978465716572
 1 -9.77277477637764  5.77058999509951  0.37910575507551
 1 -9.03081372177218  7.96543513301330 -0.06326573327333
 1 -7.20765580218022  7.37173774297430 -0.10882535313531
 1 -11.97385279807981  3.07972527782778 -2.43447974637464
 1 -13.02010722422242  1.96435207330733 -1.80677420112011
 1 -12.31782874427443  3.11931501690169 -0.78619011701170
 1 -12.37580010811081 -1.59169156735674 -1.22341254915492
 1 -13.21332733633363  0.09947613461346 -1.59315667266727
 1 -13.22410287648765 -1.52582382158216 -3.38624162186219
 1 -12.31377155115512 -0.00966969286929 -3.53336091109111
 1 -11.43880722832283 -1.55025796979698 -3.58547766326633
 1 -9.10708160406041 -4.78644149244924 -1.69509709110911
 1 -8.08697239823982 -5.64614472267227 -0.63996822492249
 1 -9.51076324212421 -5.25454224122412  0.11714345814581
 1 -3.55133526552655 -3.53634521902190 -0.05679233223322
 1 -1.54628571857186 -4.09526790409041  3.56563325032503
 1 -2.50455564296430 -5.33674431683168  3.73743096519652
 1 -1.05642706920692 -5.70626480358036  2.74581128402840
 1  2.74476914801480 -1.45209489938994 -1.57175125142514
 1  2.56566826702670  0.19103202160216 -2.02900492029203
 1  4.29952917721772 -0.84302230843084  0.32337471367137
 1  3.96976791309131  1.55696679297930 -2.62907624992499
 1  5.57338063646365  2.08181257145715 -2.09717407200720
 1  5.52383770657066  0.68517884808481 -3.20896219551955
 1  6.54725774907491  1.69383561126113 -0.30883338563856
 1  6.39341268926893  0.22711946304631  0.87400840794079
 1  7.33889763186319 -1.32549362106211 -1.17519164786479
 1  7.87720925192519  0.34243111961196 -1.91638178507851
 1  8.86418251545154  1.07756037253725 -0.04118015551555
 1  8.74308213101310 -0.66069442484248  0.74768938753875
 1  10.17943965546555 -0.02200743444344 -1.97836166676668
 1  8.98590508690869 -1.93680072437244 -1.99720468166817
 1  10.76125921062106 -2.51931844444444 -1.88165435143514
 1  9.50169764336434 -2.69394101670167 -0.68690078077808
 1  11.46672143434343  0.44287869536954  0.29073103650365
 1  11.20162057175718 -0.87090942904290  0.91610908390839
 1  12.81409714541454 -1.59985684708471 -1.17387572247225
 1  12.75645455145515  0.01589106810681 -1.67584594839484
 1  13.90288179137914  0.96749000450045  0.22194885538554
 1  13.80574666496650 -0.93152558985899  1.05901107080708
 1  15.17470986308631  0.35516537693769 -1.44363402290229
 1  15.46150815181518 -2.27204393029303 -0.08557615521552
 1  14.81331886368637 -2.11757995159516 -1.62404012441244
 1  16.76105416401640 -1.53869779837984 -1.47008911771177
 1  15.92684789448945  1.35911498419842  0.89034245524552
 1  16.28877057905791 -0.25899229492949  1.52214514621462
 1  18.08283747564757 -0.46778374217422 -0.47059306690669
 1  17.57432751395140  1.12114337283728 -1.30714419831983
 1  18.44037272007201  2.25272717231723  0.94590969186919
 1  18.86475275267527  0.49901351265126  1.80178653025303
 1  20.64753482018202  0.19171560736074  0.04995274567457
 1  20.12366920022002  3.34454343924392 -0.55922619211921
 1  21.53961007490749  2.33000887878788 -1.12009326332633
 1  19.77940877407741  2.15826722902290 -1.71826224952495
 1  20.96612662796280  1.15065436923692  2.37440688228823
 1  22.18705334583458  1.76107463866387  1.29530379657966
 1  21.14377691029103  2.94012768896890  1.70558648984898

