%nproc=4
%Mem=2GB
# td=(NStates=1) CAM-B3LYP/6-31G(d,p) 

TD

0 1
12 -6.97418908820882  0.61249949064907  0.02441048964896
 6 -4.87291617271727 -2.00641275257526  0.51537717261726
 6 -4.71494080038004  2.74974930223022  1.26623008020802
 6 -9.33917850665066  3.11827422682268 -0.38850018301830
 6 -9.54026505410541 -1.72350252525253 -0.94779289428943
 7 -5.09130191179118  0.40002126262626  0.78455597599760
 6 -4.34655226052605 -0.72245286568657  0.83974587738774
 6 -2.93349431063106 -0.36963223532353  1.26704214541454
 6 -3.06671696089609  1.11067219971997  1.86758956535654
 6 -4.37581566826683  1.47826820722072  1.17929419061906
 6 -3.03441123212321  1.07496398369837  3.33678720482048
 6 -1.95462974387439 -0.50952496259626  0.06613593939394
 6 -0.47921617561756 -0.33279151055105  0.53398198109811
 6  0.45249462786279 -0.69091252335234 -0.61873352515252
 8  0.21206175587559 -1.07361876567657 -1.70697997829783
 8  1.76112313731373 -0.45943084988499 -0.26578079817982
 7 -7.05405301380138  2.57025843314331  0.25624078087809
 6 -6.06711384238424  3.35756671057106  0.73269125312531
 6 -6.35919390909091  4.71727235763576  0.73290105460546
 6 -7.69621021642164  4.78564845154516  0.36901380838084
 6 -8.08710926412641  3.52918320962096 -0.00740040084008
 6 -5.44010979217922  5.75375646694669  1.43052957815782
 6 -8.45357456985699  5.97736280428043  0.43135315721572
 6 -8.16434563236324  7.25575165946595  0.14063980168017
 7 -9.07758279397940  0.67373385168517 -0.54132583788379
 6 -9.87001866086609  1.84227491009101 -0.63152827702770
 6 -11.20688543144314  1.50547153755376 -1.12944769436944
 6 -11.17786630733073  0.14062794009401 -1.31260052625263
 6 -9.91735161886189 -0.28483697179718 -0.93587289018902
 6 -12.22730097219722  2.46608888978898 -1.28229876077608
 6 -12.37249729542954 -0.72337339953995 -1.80110528772877
 6 -12.30423675567557 -1.13069695489549 -3.20011811721172
 7 -7.27381363346335 -1.43906326792679 -0.12939605830583
 6 -8.33702892519252 -2.24769070857086 -0.52650045594559
 6 -7.85778344584458 -3.64154833773377 -0.51239966896690
 6 -6.49642516451645 -3.57275159065907 -0.21140363246325
 6 -6.15812059025903 -2.20010616511651  0.01667328872887
 6 -8.68295864056406 -4.88801162006201 -0.69747929492949
 6 -5.37871440914091 -4.37191317661766  0.15476397629763
 8 -5.18728008980898 -5.58382103570357  0.08863489828983
 6 -4.20454386438644 -3.30389332343234  0.56002689468947
 6 -3.67996236043604 -3.77653373797380  1.83706488618862
 8 -3.88977263186319 -3.10969420222022  2.90467418271827
 8 -2.80400174807481 -4.73455160766077  1.73808189618962
 6 -2.23394603310331 -5.29579004830483  3.02184352135214
 6  2.79998377497750 -0.71053031073107 -1.18860423532353
 6  4.11975529792979 -0.45366921632163 -0.54153668236824
 6  5.08388199559956  0.33816714121412 -0.96662656285629
 6  5.01988940554055  1.34415895219522 -2.18732582368237
 6  6.43093955155515  0.47905671257126 -0.15820250645064
 6  7.59811755065506 -0.08033991589159 -0.91737140584058
 6  8.89836891929193 -0.00793052655266 -0.11754434863486
 6  10.16416730973097 -0.55563266156616 -0.79382577697770
 6  10.07209439563956 -2.09175851075108 -1.24092575407541
 6  11.45320643774378 -0.23493438403840  0.01686188488849
 6  12.74660182918292 -0.45557207310731 -0.66359689948995
 6  13.90975666346635 -0.08770553375338  0.18485569856986
 6  15.33967931193119 -0.29368197989799 -0.40495354565457
 6  15.63566766896690 -1.66155894169417 -0.85599287908791
 6  16.52380563456346  0.34164855095510  0.49138832353235
 6  17.78841454575458  0.62217034283428 -0.30096837673767
 6  18.87282268176818  1.25143699049905  0.68290065176518
 6  20.29026670647065  1.37562330693069  0.07782738633863
 6  20.39905013391339  2.15220086808681 -1.16552237363736
 6  21.13464133823382  2.15885025442544  1.18502520412041
 1 -3.97736799529953  3.53791217291729  1.49971449244924
 1 -10.09534328602860  3.89766735063506 -0.49950425302530
 1 -10.23177243904390 -2.49716977167717 -1.26119966746675
 1 -2.60519921062106 -0.95242490619062  2.13384062266227
 1 -2.20873051105111  1.73834232283228  1.57331169766977
 1 -2.14476820012001  0.81362685168517  3.50779099249925
 1 -3.35127991419142  2.15158461506151  3.89362392989299
 1 -3.63644462566257  0.31073544124412  3.78803268776878
 1 -2.06726925382538 -1.49048496889689 -0.55396038203820
 1 -2.28300250245025  0.25958805010501 -0.60640574217422
 1 -0.08499559355936  0.44705262876288  0.89914216611661
 1 -0.29870582428243 -1.03683665906591  1.39896277217722
 1 -4.61576374407441  6.28212338743874  0.77783956615662
 1 -6.15459012931293  6.43033283208321  1.73794848404841
 1 -4.69722295109511  5.40735590699070  2.14137781648165
 1 -9.70290778967897  5.83050598669867  0.33178102260226
 1 -8.84710535093509  8.15574416391639  0.03799439273927
 1 -7.18417345394539  7.52452302150215  0.19146467586759
 1 -11.78832424522452  2.90012731803180 -2.19684598299830
 1 -13.19194440794079  2.05557119521952 -1.56675019871987
 1 -12.22079904130413  3.12380546594660 -0.43593509150915
 1 -12.69516204430443 -1.55278767696770 -0.93790399829983
 1 -13.40745674927493 -0.17097091009101 -1.86356371337134
 1 -13.12156262246225 -1.62779401860186 -3.34356735443544
 1 -12.41903207720772 -0.18879760566057 -3.88334590959096
 1 -11.42304565216522 -1.69334227822782 -3.38723783928393
 1 -9.17657855375538 -5.02869571787179 -1.68596617801780
 1 -8.10951465246525 -5.71303141134113 -0.76476070417042
 1 -9.41670383618362 -4.86071285828583  0.15668741254125
 1 -3.44213434543454 -3.28562014651465 -0.39292594559456
 1 -1.95054614461446 -4.38870724802480  3.78892557955796
 1 -3.09455464286429 -5.60679132153215  3.49772699479948
 1 -1.35102652915292 -5.91261543864386  2.77728443134313
 1  2.66679135023502 -1.74712440234023 -1.35914999129913
 1  2.55435713591359 -0.18283536513651 -2.13484550435044
 1  4.42780200450045 -1.09324733093309  0.28372074827483
 1  4.08789972627263  1.32112320862086 -2.45868921122112
 1  5.18833213161316  2.40211460166017 -1.75182953755376
 1  5.67366268906891  1.10461079127913 -3.13554485378538
 1  6.77447047034703  1.52272850055006  0.01970946864686
 1  6.34820816881688 -0.26668991789179  0.69432043914391
 1  7.32260600270027 -0.90939201090109 -1.22044617331733
 1  7.54451598259826  0.36803367986799 -1.95404555145515
 1  9.17897399459946  0.98771138763876  0.47323128562856
 1  8.83718154095410 -0.59661801720172  0.75007962656266
 1  10.37144885638564 -0.09191442514251 -1.87810164076408
 1  9.19899639603960 -2.41020806510651 -1.95332029322932
 1  10.94064714941494 -2.57385389798980 -1.76957314331433
 1  9.74727220082008 -2.71785340794079 -0.28598068876888
 1  11.27037179937994  0.75305971347135  0.58495045844584
 1  11.60216062576258 -1.23876621472147  0.77177465046505
 1  12.86496223192319 -1.56020288168817 -0.92075040994099
 1  12.73908281428143  0.29439891889189 -1.56079444324432
 1  13.53640514371437  0.81367462296230  0.26357301780178
 1  13.85557164746475 -0.77377981528153  1.04374954465447
 1  15.28362075417542  0.58332819321932 -1.33604326382638
 1  15.88720072107211 -2.33942066796680 -0.10345794339434
 1  14.79184671647165 -2.16701489508951 -1.34483220362036
 1  16.54551260986099 -1.73958788738874 -1.42215432423242
 1  16.23066827652765  1.28809788248825  1.00419384038404
 1  16.89828153015302 -0.29730612631263  1.38704163586359
 1  18.19413860576058 -0.35383234703470 -0.64717072467247
 1  17.44089417061706  1.18010926942694 -1.13002648654866
 1  18.64850353315331  2.28623052265227  1.10369547044705
 1  18.85442171957196  0.92285589688969  1.78893524512451
 1  20.94154422112211  0.42691912771277 -0.02343459305931
 1  20.44414124742475  3.37459644454445 -0.81845211471147
 1  21.35581169506951  2.02142802070207 -1.67841909590959
 1  19.70846167936794  2.05077647994800 -2.01041146444644
 1  21.07065708100810  1.59278858265827  2.10788022962296
 1  22.18876351685169  2.21194972617262  1.05808007420742
 1  20.86836936953695  3.17518119431943  1.38306423762376

