%nproc=4
%Mem=2GB
# td=(NStates=1) CAM-B3LYP/6-31G(d,p) 

TD

0 1
12 -7.15920759005901  0.53155139583958  0.14626267486749
 6 -4.83799268036804 -2.03476558785879  0.45293092799280
 6 -4.85382468876888  2.79498382568257  1.28979243644364
 6 -9.46304089288929  3.10281268066807 -0.23883521652165
 6 -9.52094312191219 -1.71504167916792 -0.92403051805181
 7 -5.17806058765877  0.41465272577258  0.85004252465247
 6 -4.29039664496450 -0.71227184758476  0.74780668346835
 6 -2.90664162536254 -0.28499377147715  1.20696613781378
 6 -2.93627391659166  1.09095022752275  1.65899870627063
 6 -4.47768585528553  1.50837121752175  1.25415167636764
 6 -2.81735952695269  1.32418890619062  3.21690521662166
 6 -1.85972025292529 -0.62356636673667  0.15321464726473
 6 -0.37837609160916 -0.29191742314231  0.65410399329933
 6  0.65778515691569 -0.67342077417742 -0.43698535033503
 8  0.33417396709671 -1.00950235403540 -1.54268354865487
 8  1.84843186818682 -0.44051895869587  0.03387916781678
 7 -7.15624323282328  2.63600500780078  0.34220937773777
 6 -6.12152928392839  3.36155710961096  0.84578256225623
 6 -6.42588057775778  4.76153678407841  0.78669643414341
 6 -7.74781537693769  4.79278916561656  0.39574648164816
 6 -8.19081963516352  3.39061935323532  0.21638197739774
 6 -5.56078185938594  5.88069916121612  1.14677120232023
 6 -8.63650286268627  5.93073814181418  0.23596361826183
 6 -8.27914711251125  7.24961104540454 -0.06237049934993
 7 -9.16152118781878  0.63512999129913 -0.45843754905491
 6 -9.92122378137814  1.77583826642664 -0.55779090329033
 6 -11.20652539543955  1.41407239763976 -1.09903465306531
 6 -11.24189270997100  0.10033391069107 -1.24986425262526
 6 -9.99413929762976 -0.44261274937494 -0.77143644654465
 6 -12.28714695679568  2.39841212211221 -1.40953148404840
 6 -12.38965901160116 -0.79750081228123 -1.71395657285729
 6 -12.22790912291229 -1.24014789999000 -3.23159126452645
 7 -7.23043929602960 -1.38142750435044 -0.16550966966697
 6 -8.29705492779278 -2.25181112061206 -0.53115092099210
 6 -7.87650531803180 -3.54569875277528 -0.52696112511251
 6 -6.52325784778478 -3.56267058255826 -0.19058155025503
 6 -6.21506628482848 -2.22524867936794  0.06904852625263
 6 -8.76199654435444 -4.75185800470047 -0.77482702970297
 6 -5.31878841654165 -4.33927991329133  0.10916941684168
 8 -5.26857821962196 -5.58400105370537 -0.04051801700170
 6 -4.18474188418842 -3.25373830793079  0.42383327532753
 6 -3.55637000120012 -3.62295838043804  1.82210339003900
 8 -3.76157981258126 -3.06500973377338  2.81848556385639
 8 -2.79811115901590 -4.65336348884888  1.72712080008001
 6 -2.11847448594860 -5.11523199249925  2.81469280628063
 6  2.79791356795680 -0.68980823852385 -1.08176355125513
 6  4.19333265566557 -0.51873572297230 -0.56491902060206
 6  5.14308791619162  0.35726905140514 -0.88822872307231
 6  4.99171658825883  1.37128166446645 -2.09013610471047
 6  6.43463992159216  0.41944075097510 -0.18090477667767
 6  7.54337207610761 -0.03853573547355 -1.01784145284528
 6  8.88744782718272 -0.12375210871087 -0.13822641684168
 6  10.16221711471147 -0.48773587188719 -0.97188358275828
 6  10.01622880908091 -1.85279461436144 -1.48667032853285
 6  11.46034715181518 -0.44377526812681 -0.09180898219822
 6  12.76214338333833 -0.61968848474847 -0.80107064686469
 6  13.98984467226723 -0.14918168136814  0.08997621062106
 6  15.32819816381638 -0.20637324902490 -0.53649669997000
 6  15.79312341454145 -1.62032481828183 -0.85431271107111
 6  16.52748600260026  0.49941432753275  0.34634381908191
 6  17.86417212151215  0.62434055985599 -0.16990527042704
 6  18.83262866236624  1.23693554035404  0.74643700540054
 6  20.27996567636764  1.31166691129113  0.24471407500750
 6  20.44354458335834  2.12362801080108 -1.13793961536154
 6  21.16957483158316  1.81796616601660  1.42754945654565
 1 -3.99915017351735  3.51056943864386  1.66488100910091
 1 -10.03392714441444  3.99936752065207 -0.30443474607461
 1 -10.30222948474847 -2.45109516421642 -1.34832838033803
 1 -2.52047073777378 -0.77239690339034  2.35378261686169
 1 -2.25701533953395  1.57470595919592  1.20799516601660
 1 -1.82114583788379  0.85960144914491  3.63704391779178
 1 -2.90189497569757  2.45626508310831  3.39353392089209
 1 -3.72074305550555  0.74591895959596  3.63824770927093
 1 -1.93371589848985 -1.61259718011801 -0.21204619061906
 1 -2.09138334053405  0.07534962626263 -0.72547764936494
 1 -0.28274536853685  0.65483340684068  1.07141939383938
 1 -0.07475342904290 -0.72679565496550  1.52831570747075
 1 -4.96863903160316  6.24197937303730  0.31715349754976
 1 -6.03298796909691  6.78812861166117  1.67454214341434
 1 -4.81999522832283  5.59688485988599  1.93802748144815
 1 -9.74755225412541  5.61189412551255  0.30849869436944
 1 -9.12390303070307  7.94566315581558 -0.15796520322032
 1 -7.25351038763876  7.47892846204620  0.01401693109311
 1 -11.75105051785178  2.98358566386639 -2.30416671507151
 1 -13.14213942744274  1.90457609570957 -1.83541706540654
 1 -12.71771873327333  2.98317140254025 -0.51011250925093
 1 -12.70042257035704 -1.58642104030403 -1.10009021692169
 1 -13.29834583818382 -0.32279609260926 -1.72690004700470
 1 -13.24380484668467 -1.62007324652465 -3.36488948664866
 1 -11.98853902790279 -0.33477220312031 -3.81979955495550
 1 -11.37410075767577 -1.88799174317432 -3.32717183268327
 1 -8.99840073597360 -5.01190403870387 -1.90388797019702
 1 -8.11269497049705 -5.69959006720672 -0.41749597769777
 1 -9.78346051185118 -4.80472725972597 -0.46253450965096
 1 -3.58634876687669 -3.46756834133413 -0.52973962696270
 1 -1.65273636363636 -4.24628300560056  3.39045573257326
 1 -2.67090227762776 -5.81036167856786  3.47163438553855
 1 -1.47433886038604 -5.96355053215322  2.46947365026503
 1  2.86783145424542 -1.82814250415041 -1.32228630493049
 1  2.50577227742774 -0.13436051765177 -1.88800081988199
 1  4.40179940424042 -1.29222722892289  0.29799217541754
 1  3.89393032933293  1.21098219451945 -2.32168551085108
 1  5.13570686908691  2.43087747794780 -1.59621397599760
 1  5.71270659345935  1.28825915611561 -2.91392269156916
 1  6.51908493179318  1.37304353205321  0.18567606530653
 1  6.51821516951695 -0.19260250915091  0.76762776987699
 1  7.35522926502650 -1.12339341104110 -1.45180930963096
 1  7.62817434843484  0.61605848234823 -1.74189433633363
 1  9.17325342254225  0.85972858935894  0.38871283378338
 1  8.90485830863086 -0.94585294069407  0.62997761636164
 1  10.08398010951095  0.20121488778878 -1.75378920952095
 1  9.02342883928393 -2.12169921422142 -2.13711867306731
 1  10.89184226892689 -2.21045755835584 -1.99914610061006
 1  10.00491796539654 -2.64818644124412 -0.64350644134413
 1  11.38684344654465  0.56703111061106  0.22510447384738
 1  11.34608501820182 -0.95099743784378  0.88701617461746
 1  12.97613334903490 -1.67262412381238 -1.07384571947195
 1  12.65409431543154 -0.20216073707371 -1.68209657345735
 1  13.96643814701470  0.88394164966497  0.56913357385739
 1  13.93650974127413 -0.80533297059706  1.11662683238324
 1  15.34625701780178  0.39368922932293 -1.43763342284228
 1  15.95102710371037 -2.23189991589159  0.02871527392739
 1  14.95036256805681 -2.14108230183018 -1.39571729212921
 1  16.69987804640464 -1.81830575917592 -1.43548565736574
 1  16.18290350005000  1.50631970467047  0.63554697569757
 1  16.25666736873687  0.00152375667567  1.34951788348835
 1  18.15701489338934 -0.36959392319232 -0.38079408700870
 1  17.91169125032503  1.12446370487049 -1.08160164406441
 1  18.52424110691069  2.22863476307631  1.02752785368537
 1  18.49129540694069  0.54071768306831  1.70721707330733
 1  20.30236030273027  0.19482591839184  0.26300405080508
 1  20.19357619091909  3.14676366126613 -1.11369163866387
 1  21.54868098199820  2.10607648554855 -1.14674592859286
 1  19.91540237343734  1.67565896819682 -1.84357478077808
 1  20.79913992929293  1.18544784858486  2.25637507910791
 1  22.05803044354435  1.87423595479548  1.04226849304931
 1  20.87034956755676  2.77776145234523  1.67712364356436

