%nproc=4
%Mem=2GB
# td=(NStates=1) CAM-B3LYP/6-31G(d,p) 

TD

0 1
12 -7.15005667496750  0.56584482518252  0.13057110571057
 6 -4.80719960106011 -1.95849796109611  0.60589622452245
 6 -4.71130043634363  2.82237656495650  1.10679413661366
 6 -9.34425901470147  3.11813421282128 -0.34479581258126
 6 -9.51408243584358 -1.66092626762676 -0.90870898589859
 7 -5.07857063866387  0.45174643514351  0.76338385878588
 6 -4.28715632093209 -0.74096471687169  0.85427733053305
 6 -2.89559052025203 -0.40617588968897  1.26977241844184
 6 -2.97664795399540  1.10508164066407  1.72881568796880
 6 -4.26811489818982  1.46882726312631  1.12624888608861
 6 -3.01235902690269  1.12220870817082  3.19451297739774
 6 -1.88577285818582 -0.67327133723372  0.14184351015102
 6 -0.43383163716372 -0.50642887428743  0.62894147704770
 6  0.53211258965897 -0.64990842294229 -0.60061171297130
 8  0.18366891659166 -1.04634603840384 -1.68084736503650
 8  1.83384040904090 -0.33556846364636 -0.26466068616862
 7 -7.10805841434143  2.55767717501750  0.53216837363736
 6 -6.06111324232423  3.32460341424142  0.89881786578658
 6 -6.41999998969897  4.71719234963496  0.83679144364436
 6 -7.69354995039504  4.87984787148715  0.44579148614861
 6 -8.11746229942994  3.48119841114111  0.13453379257926
 6 -5.41165694689469  5.82888397969797  1.20418694389439
 6 -8.55068428082808  6.08028309630963  0.37182720462046
 6 -8.10349954775477  7.23808989328933  0.09962570027003
 7 -9.13627866356636  0.71183766206621 -0.46703840914091
 6 -9.88281994099410  1.79539022162216 -0.57860298449845
 6 -11.20066480938094  1.48350934133413 -1.03764851445145
 6 -11.16741526222622  0.09838371567157 -1.29719898609861
 6 -9.90982086578658 -0.38810729882988 -0.74759406230623
 6 -12.25756399849985  2.51128340924092 -1.35319585048505
 6 -12.24601464716472 -0.84297535973597 -1.85008018521852
 6 -12.23029936193619 -1.05397928312831 -3.32265037043704
 7 -7.27135338743874 -1.46489585118512 -0.07516063476348
 6 -8.29195441774177 -2.19702564206421 -0.64944275017502
 6 -7.90604827232723 -3.60191437433743 -0.48253668266827
 6 -6.46651217321732 -3.56330064556456 -0.12966545864586
 6 -6.24236901510151 -2.24515066956696  0.16916853825383
 6 -8.57432777747775 -4.83625644454446 -0.84079362636264
 6 -5.33066960466047 -4.34567055235524  0.10208870877088
 8 -5.18860022182218 -5.54207686128613  0.06578261306131
 6 -4.24148755875588 -3.33186612071207  0.57811870387039
 6 -3.61191555575558 -3.71061714631463  1.99632081178118
 8 -3.77884153875388 -3.12246547934793  3.00582429772977
 8 -2.87885923382338 -4.77885603810381  1.82762085008501
 6 -2.15015765426543 -5.23142361166117  3.02154349134914
 6  2.68636241284128 -0.61768102580258 -1.40456583148315
 6  4.09958328072807 -0.48087193659366 -0.71652418111811
 6  5.10729433683368  0.28557188168817 -1.14249414961496
 6  5.15926334293429  1.25497003330333 -2.33667075817582
 6  6.32621907950795  0.33929273617362 -0.40396708290829
 6  7.59834757365737 -0.18329021092109 -1.03040270897090
 6  8.91873095549555 -0.09172890639064 -0.25787838203820
 6  10.17831872487249 -0.54183128142814 -0.94997139153915
 6  10.12823000920092 -1.92732206710671 -1.49782144364436
 6  11.41669278637864 -0.24279517011701 -0.14711451275128
 6  12.73884105310531 -0.55367188308831 -0.71388192799280
 6  13.90475616341634 -0.15038180138014  0.17977519051905
 6  15.35790113411341 -0.24843745544554 -0.45229828012801
 6  15.61900600280028 -1.79027181298130 -0.76699397919792
 6  16.31235448944894  0.34776916301630  0.52032121682168
 6  17.70579628392839  0.67612573837384 -0.16672495239524
 6  18.74007940744075  1.38029987678768  0.83427578927893
 6  20.21440912071207  1.39309505410541  0.30776037963796
 6  20.28656888578858  2.25961160916092 -0.97873369476948
 6  21.03240111421142  1.96224059345935  1.40450715231523
 1 -4.10504076257626  3.58765714741474  1.39587410841084
 1 -10.04532828452845  4.05143272717272 -0.63856815941594
 1 -10.26277553935393 -2.62941299599960 -1.06713026052605
 1 -2.47950664136414 -1.06025568926893  1.92439967856786
 1 -2.29061869986999  1.77318580718072  1.26332069856986
 1 -1.94237796109611  0.94376986598660  3.82151236463646
 1 -3.46734152035204  1.97250670727073  3.61837640514051
 1 -3.72975395659566  0.39544391209121  3.73598748324832
 1 -1.86651917881788 -1.59916583698370 -0.39791477747775
 1 -2.03097729992999  0.00709280058006 -0.46738183978398
 1 -0.14982207620762  0.44709263276328  1.15069732163216
 1 -0.27507346104610 -1.15980895629563  1.33142601850185
 1 -5.01455362306231  6.17260243534353  0.24731651385139
 1 -6.08382305260526  6.89149894869487  1.59384407360736
 1 -4.65504873367337  5.68694386578658  1.93945762446245
 1 -9.66003350225022  5.88751168726873  0.66840468496850
 1 -8.91458209860986  8.11543013251325 -0.03587299399940
 1 -7.21840687728773  7.67579814901490 -0.08768323892389
 1 -12.06617203000300  3.22814011931193 -2.24489078747875
 1 -13.25638085158516  2.03657929602960 -1.72063558725873
 1 -12.22071903330333  3.20764384978498 -0.27710920892089
 1 -12.32890541864186 -1.84832723092309 -1.29069927782778
 1 -13.34358036163616 -0.47815162816282 -1.51099845684568
 1 -13.04376484268427 -1.59181042024202 -3.63495649334933
 1 -12.09071924592459 -0.11164989088909 -3.88977655265527
 1 -11.31317466506651 -1.64099704370437 -3.49425854135414
 1 -8.86277717361736 -4.93083593189319 -1.82203978537854
 1 -8.04136783778378 -5.75550565876588 -0.49781400950095
 1 -9.73590575637564 -5.01161794879488 -0.33167142334233
 1 -3.25189532153215 -3.66643822832283 -0.02621927492749
 1 -1.36793788378838 -4.36084446174617  3.35162184918492
 1 -2.76036122352235 -5.52600324272427  4.00912813491349
 1 -1.59572099859986 -6.16179035613561  2.79591629452945
 1  2.56992166326633 -1.58165785568557 -1.71479555585559
 1  2.60121182138214  0.32873579197920 -2.18544056385639
 1  4.25444466876688 -0.98636664286429  0.29584196039604
 1  4.22448338463846  1.38494959125913 -2.89363270557056
 1  5.41244454285428  2.16874126432643 -1.98943329792979
 1  5.90557588038804  0.91351168136814 -2.98830012931293
 1  6.70187321062106  1.33224945264526 -0.16263876617662
 1  6.34783813181318 -0.15502875177518  0.67400840794079
 1  7.41623536563656 -1.32239331103110 -1.31390551925193
 1  7.77061859285929  0.45541241774177 -1.85168531543154
 1  8.89128522572257  1.00471308780878  0.16286024852485
 1  8.83731155395540 -0.70928928432843  0.54482910151015
 1  10.16619833133313  0.04312907920792 -1.97270110071007
 1  9.18557505390539 -2.24988203250325 -2.13500846204620
 1  11.20490357505751 -2.04407091969197 -2.10003618961896
 1  9.82872034563456 -2.71064268686869 -0.74046613731373
 1  11.42241700390039  0.78560296779678  0.03101506490649
 1  11.31499190889089 -0.78274061216122  0.89953742674267
 1  12.83675941164116 -1.55822268366837 -1.15537387228723
 1  13.05338424442444  0.08497797679768 -1.62685104890489
 1  13.67504900810081  0.83989724522452  0.39487614811481
 1  13.95612170247025 -0.67998043534353  1.25592076177618
 1  15.34870726282628  0.17918777917792 -1.45564522402240
 1  15.47267926892689 -2.39585631153115  0.24604700710071
 1  14.99458699049905 -2.08959715331533 -1.77156487688769
 1  16.73323138173818 -2.02567649624963 -0.91904401320132
 1  15.84180939063906  1.39414848754875  1.10813423442344
 1  16.48792049404940 -0.43914030973097  1.29655258695870
 1  18.28327751965197 -0.30434739853985 -0.80375638323832
 1  17.42636271747175  1.44836609510951 -0.94443792769277
 1  18.28913759655966  2.27531943154316  1.08764386528653
 1  18.73082936033603  0.66668027932793  1.80260661226123
 1  20.67959802650265  0.46022245804580 -0.02865511511151
 1  19.84948178147815  3.29274825972597 -0.73984425392539
 1  21.31940805470547  2.34552042994299 -1.29176043004300
 1  19.74603543674367  1.86475787808781 -1.96418684198420
 1  21.18738875417542  1.50727003080308  2.36986642824282
 1  22.15058969946995  2.40231876307631  0.89904417061706
 1  20.78330086268627  2.96744042024202  1.59613554475448

