%nproc=4
%Mem=2GB
# td=(NStates=1) CAM-B3LYP/6-31G(d,p) 

TD

0 1
12 -7.11926359565957  0.64093233393339  0.06315436403640
 6 -4.86059494059406 -1.99578168946895  0.53296893179318
 6 -4.77838714501450  2.77680200750075  1.24015747294729
 6 -9.39676426522652  3.07246964636464 -0.41709304230423
 6 -9.45182621022102 -1.71243141814181 -0.84612272727273
 7 -5.14925770737074  0.46451771227123  0.79779730013001
 6 -4.35317292259226 -0.77238785918592  0.88811071387139
 6 -2.93763472467247 -0.34716998909891  1.36142158335834
 6 -3.04229451865187  1.07132826532653  1.82149495589559
 6 -4.39643773047305  1.51269164956496  1.22115837703770
 6 -2.93515130613061  1.26019250655066  3.38162168826883
 6 -1.93134741564156 -0.62761677177718  0.20078940474047
 6 -0.48347660166017 -0.48083631503150  0.61536011891189
 6  0.44809418781878 -0.70210364246425 -0.53141479327933
 8  0.09957050675067 -0.96870827462746 -1.66101538183818
 8  1.73510053505351 -0.39587449424942 -0.17306152625263
 7 -7.11776938543854  2.59219062636264  0.33290844764476
 6 -6.04174130513051  3.28976993089309  0.81482946694669
 6 -6.42649063876388  4.70223085348535  0.80710847534753
 6 -7.69999059445945  4.78115800250025  0.35658256525653
 6 -8.20396094929493  3.45930622192219  0.08793913311331
 6 -5.51038681988199  5.77434852615261  1.36364288948895
 6 -8.50435964836484  6.03360842884288  0.21752177407741
 6 -8.07277647544754  7.20636672097210 -0.08482274457446
 7 -9.10898593429343  0.67238371667167 -0.44237594289429
 6 -9.89715137413741  1.82756343894389 -0.54322944714471
 6 -11.19168391129113  1.48761975237524 -1.07277202680268
 6 -11.15612413311331  0.12619649694969 -1.29567883408341
 6 -9.85782566626663 -0.38170665876588 -0.86146544944494
 6 -12.24754299639964  2.49017129802980 -1.30163069396940
 6 -12.30834087978798 -0.69655071727173 -1.78426360356036
 6 -12.09589592159216 -1.21409529472947 -3.25277338273827
 7 -7.14196044814481 -1.31295065666567 -0.26522964166417
 6 -8.14633985628563 -2.22615855535554 -0.52398020392039
 6 -7.81820948844884 -3.57267145004500 -0.51098952795280
 6 -6.51649717171717 -3.52072638813881 -0.08756124822482
 6 -6.13213799199920 -2.19174532903290  0.11025264666467
 6 -8.62850319501950 -4.70620343924392 -0.85378492549255
 6 -5.39230576827683 -4.44026001130113  0.21730022992299
 8 -5.18058942074207 -5.60538319191919  0.13264929972997
 6 -4.19328273827383 -3.35360829492949  0.53402429442944
 6 -3.58570293449345 -3.75421150575058  1.94421560126013
 8 -3.81100475507551 -3.22373560636064  2.98548226352635
 8 -2.82011335923592 -4.78133628612861  1.73881196919692
 6 -2.06570920942094 -5.32772324162416  2.90281161816182
 6  2.78927270387039 -0.64730398809881 -1.12862823772377
 6  4.09015233763376 -0.48090193959396 -0.66459898859886
 6  5.07586119351935  0.32791611611161 -1.09826972717272
 6  5.07052446904690  1.17388192449245 -2.30924801590159
 6  6.36606306390639  0.43037184408441 -0.34817150335033
 6  7.57731547044704 -0.18257013891389 -1.08182785148515
 6  8.82262134453445 -0.08775850935094 -0.20009260346035
 6  10.09823071607161 -0.44062116041604 -0.96155254965497
 6  10.08644583078308 -1.92542187708771 -1.38653031453145
 6  11.41241235833583 -0.14355524612461 -0.19042884418442
 6  12.76597376637664 -0.51848836473647 -0.79305984578458
 6  13.91679736753675 -0.13853061626163  0.13657087008701
 6  15.38283362736274 -0.17989060076008 -0.50086313661366
 6  15.62774687688769 -1.61369415521552 -0.94753203300330
 6  16.38908216221622  0.47165155125513  0.43736292099210
 6  17.72037774207421  0.71805993179318 -0.20564884478448
 6  18.74718011751175  1.25588743554355  0.85959832153215
 6  20.18651633143314  1.27461320592059  0.35560516411641
 6  20.38095832473247  2.14388003600360 -0.94823064446445
 6  21.10944881898190  1.82950732013201  1.40747744934493
 1 -4.17748800730073  3.33219160086009  1.75232975397540
 1 -10.16369012071207  3.90153773767377 -0.61523582618262
 1 -10.35123438523852 -2.28046810151015 -1.29537308480848
 1 -2.61635032573257 -0.94668433213321  2.15966320492049
 1 -2.24041367936794  1.68735722432243  1.31312567906791
 1 -2.08311203450345  1.08422391139114  3.80386059945995
 1 -3.09005379157916  2.42081153775378  3.54340890839084
 1 -3.83351433263326  0.86228059575958  3.82747663216322
 1 -2.04255678257826 -1.84917083748375  0.02737775177518
 1 -2.27489169136914 -0.03193110181018 -0.75590069166917
 1 -0.30576767076708  0.59172709620962  1.14450670257026
 1 -0.17853380708071 -1.12000497589759  1.38084095999600
 1 -4.80716288398840  6.16372154725473  0.51115289748975
 1 -5.98502317261726  6.42733253205320  1.99720440964096
 1 -4.68295152395239  5.14406957835783  1.91998567726773
 1 -9.45710320922092  5.89977291339134  0.55535337983798
 1 -8.73524416481648  8.13096168566857 -0.08657806450645
 1 -6.88458349494949  7.53278384758476 -0.62599707030703
 1 -11.86274168696870  3.49391669696970 -1.98367466586659
 1 -13.17096230973097  2.21670730883088 -1.51678520222022
 1 -12.30745770717072  2.99003208860886 -0.33533503150315
 1 -12.07906043414341 -1.69451184938494 -1.20340054795480
 1 -13.39681568516852 -0.33931774477448 -1.46129348634863
 1 -12.76850731693169 -1.96358759795980 -3.47080007770777
 1 -12.34700487448745 -0.40346907280728 -4.06025360036004
 1 -11.10879422702270 -1.47675061906191 -3.59498861436144
 1 -9.36148704460446 -4.61821466976698 -1.80671825322532
 1 -8.26618031903190 -5.77779788798880 -0.71280550865087
 1 -9.48432059785979 -4.67534432143214 -0.15592384858486
 1 -3.45755588758876 -3.44476606110611 -0.21752840584058
 1 -1.57875896589659 -4.45393377067707  3.55576226322632
 1 -2.86659184658466 -5.77313795619562  3.27758498059806
 1 -1.40073149964996 -6.19319349644964  2.52923962686269
 1  2.68664333543354 -1.64741443134313 -1.66878095439544
 1  2.63757545774578 -0.00304738633863 -2.20366238603860
 1  4.28590781508151 -0.65403340954095  0.51160353655365
 1  4.02972390869087  1.42630372667267 -2.69529287158716
 1  5.60020331873187  2.18164255445545 -1.95020937553755
 1  5.63001832463246  0.73251358155816 -3.23120441974197
 1  6.57942096539654  1.58188441614161  0.00868836653665
 1  6.34958830683068  0.03777052815282  0.74542554965497
 1  7.41179492159216 -1.31437250895090 -1.20745487418742
 1  7.77719925092509  0.47089396589659 -2.05664581148115
 1  8.92848894609461  0.83170578707871  0.10817477997800
 1  8.83363118591859 -0.67789614501450  0.73428804740474
 1  10.13057476897690  0.19349411571157 -2.06719054965497
 1  9.24696119251925 -2.04553159745975 -2.21469643084308
 1  10.96235932063206 -2.21021753435344 -1.89059524552455
 1  10.12210968456846 -2.50090171277128 -0.54450654135414
 1  11.36322108430843  0.74201860936094 -0.00130816741674
 1  11.35108551825182 -0.61947428552855  0.77077455045505
 1  12.81627736343634 -1.53671053245325 -1.11718005290529
 1  12.91899080508051  0.07609708870887 -1.70716908070807
 1  13.75676717991799  0.95132838833883  0.23616027652765
 1  13.97394348464847 -0.62846528382838  1.12886805650565
 1  15.26780917301730  0.36488634903490 -1.47448710821082
 1  15.57239924092409 -2.22772949884988  0.01966436883688
 1  14.65473300510051 -1.93359155275528 -1.47486520692069
 1  16.53951200980098 -2.08976290489049 -1.39473158195820
 1  16.12304751445144  1.56063513621362  0.84446786778678
 1  16.51546324832483 -0.10112650835084  1.16996992869287
 1  18.21632082398240 -0.22356932073207 -0.55759176677668
 1  17.52687276847685  1.56883814231423 -1.15015849974998
 1  18.64448313111311  2.42785468506851  0.87240234113411
 1  18.92305858325832  0.59385299659966  1.63604995659566
 1  20.40285035173517  0.27537397319732  0.18101585198520
 1  20.17309414271427  3.17829681458146 -0.69412968246825
 1  21.56834294819482  2.13753963186319 -1.20956221022102
 1  19.98190902410241  1.75178658095810 -1.76684710801080
 1  21.19697971327133  1.26528583238324  2.26970641224122
 1  22.24063870437044  1.90673920512051  1.03527779397940
 1  20.72256478907891  2.84137781398140  1.40069600080008

