%nproc=4
%Mem=2GB
# td=(NStates=1) CAM-B3LYP/6-31G(d,p) 

TD

0 1
12 -7.15106677597760  0.58573681438144  0.14127217581758
 6 -4.94676355745575 -1.94912702400240  0.60415605050505
 6 -4.77904721102110  2.77979230653065  1.22575603280328
 6 -9.35451003980398  3.13343574297430 -0.37608894189419
 6 -9.53816484408441 -1.80316049104911 -0.83317143214321
 7 -5.14519730133013  0.41276253675368  0.90901842224222
 6 -4.34916252155215 -0.73038365876588  0.81062296509651
 6 -2.92681364256426 -0.50931620372037  1.24571001220122
 6 -3.03133342254225  1.05719685218522  1.68186099249925
 6 -4.39036712341234  1.44324470487049  1.18838509970997
 6 -2.87605539653965  1.19667615491549  3.20906443254325
 6 -1.86704098499850 -0.60717472757276  0.13609293509351
 6 -0.49795804980498 -0.38883711511151  0.53108169106911
 6  0.50148952735274 -0.55250868296830 -0.58247989978998
 8  0.26028657835784 -0.89409081288129 -1.66662594289429
 8  1.79603662866287 -0.39113402020202 -0.14934915501550
 7 -7.18186579507951  2.58216962426243  0.37676283308331
 6 -5.98871600260026  3.33992494639464  0.75980396439644
 6 -6.33258124782478  4.66522715311531  0.82134989948995
 6 -7.70107070247025  4.79581946864687  0.38292519951995
 6 -8.19335988918892  3.45219551085109  0.15674601380138
 6 -5.46697247844785  5.82465355665567  1.29289581478148
 6 -8.63501271367137  5.95145021302130  0.36046606850685
 6 -8.34749394719472  7.20909699399940  0.04747048474848
 7 -9.08796383208321  0.64936141444144 -0.50115182048205
 6 -9.82643430243024  1.78108879147915 -0.74341946614661
 6 -11.26860160306031  1.39551054145415 -1.22299704930493
 6 -11.24269278997900  0.09805368266827 -1.42922218841884
 6 -9.88486837053705 -0.38999748784878 -0.85284458735874
 6 -12.28590683278328  2.36943922482248 -1.55402593349335
 6 -12.34564461016102 -0.85015607780778 -1.79627480468047
 6 -12.24392072407241 -1.06501038623862 -3.37658576397640
 7 -7.25042129422942 -1.40988034963496 -0.14638775747575
 6 -8.23767899019902 -2.33464940444044 -0.42142994889489
 6 -7.77886555405540 -3.63410759365937 -0.47507593659366
 6 -6.45205072707271 -3.59039335483548 -0.01883437553755
 6 -6.21690646884688 -2.22689884438444  0.14812643404340
 6 -8.71401174587459 -4.84274709360936 -0.75697524452445
 6 -5.35793233093309 -4.37588357365737  0.22704120402040
 8 -5.21049241104110 -5.61995464906491  0.25776181098110
 6 -4.16329973997400 -3.29437237133713  0.55358625062506
 6 -3.61095545974597 -3.67393347794779  1.90622180188019
 8 -3.79406306090609 -3.19336256905691  2.99680339563956
 8 -2.79906125402540 -4.74178233073307  1.70408849684968
 6 -2.14641728022802 -5.21294176347635  2.91358269526953
 6  2.86481025762576 -0.39052831053105 -1.09782515741574
 6  4.10193351575158 -0.21340518991899 -0.40791332003200
 6  5.13920752815282  0.55550887538754 -0.90617051725173
 6  5.15525294189419  1.36383091939194 -2.18117520862086
 6  6.48348480608061  0.63197200410041 -0.15857254345435
 6  7.61147888678868 -0.01769365126513 -0.92117178587859
 6  8.98296737913791 -0.08602833633363 -0.22782537673767
 6  10.20549144214421 -0.37681477977798 -0.93989038343834
 6  10.09133631983198 -1.98639797469747 -1.39078073957396
 6  11.38218933603360 -0.20622151275127 -0.03256305760576
 6  12.77190435943594 -0.44219073497350 -0.73668420822082
 6  13.90401608940894 -0.07287405060506  0.09985719871987
 6  15.21896724072407 -0.14425703740374 -0.63351640194019
 6  15.52962706490649 -1.59652243804380 -1.14648192799280
 6  16.34803805780578  0.37635202130213  0.35634481918192
 6  17.76472217651765  0.46244437023702 -0.16778505840584
 6  18.81387678717872  1.15046689348935  0.79184154585459
 6  20.25807348714871  1.22181792639264  0.27465706930693
 6  20.39161939083908  2.09624527252725 -1.01311713311331
 6  21.11516939103911  1.64872924232423  1.35793249484948
 1 -4.04831509000900  3.53506188788879  1.59028354935494
 1 -9.98405215691569  3.99354693859386 -0.53555785838584
 1 -9.95263452525253 -2.67717777247725 -1.12420596809681
 1 -2.46015470617062 -1.33150281398140  2.11894913351335
 1 -2.21682132013201  1.57293578217822  1.27810217671767
 1 -1.99345306860686  0.91217670667067  3.77951816521652
 1 -2.89721450765077  2.22934239083908  3.33024759225923
 1 -3.73664464566457  0.65466983468347  3.83574745924592
 1 -2.12250477737774 -1.70857677807781 -0.24115910191019
 1 -2.04409861206121  0.16111820312031 -0.57236233783378
 1 -0.34275136913691  0.56405432893289  0.86800905280528
 1 -0.19015496919692 -1.15766874227423  1.57030990689069
 1 -5.00231239893989  6.21103627872787  0.32125390759076
 1 -6.25523019331933  6.71544134293429  1.62927761696170
 1 -4.68851208000800  5.40672584398440  1.98938261696170
 1 -9.68877637653765  5.59060199629963  0.55792363686369
 1 -9.04300494089409  7.98221681118112  0.16634722802280
 1 -7.33895893249325  7.35272584178418 -0.32445691629163
 1 -11.98339375217522  3.17349465476548 -2.27646394479448
 1 -13.23168838233823  1.87537317541754 -1.73824734843484
 1 -12.47132409380938  2.90476356175618 -0.73474497249725
 1 -12.30799332743274 -1.80013241144114 -1.41770197809781
 1 -13.28469447304730 -0.23969778277828 -1.45646300330033
 1 -13.15057552375237 -1.48052929212921 -3.86241923962396
 1 -11.82529270327033  0.02543381748175 -4.01416899189919
 1 -11.37317066466647 -1.62222516651665 -3.45260437593759
 1 -8.99465036093609 -4.57225007330733 -1.93731131253125
 1 -8.14811851285129 -5.67488759695970 -0.99050327842784
 1 -9.74990715651565 -4.83045983298330 -0.27919617581758
 1 -3.23050318231823 -3.44305589008901 -0.14037069006901
 1 -1.76933802380238 -4.26908528582858  3.49501618861886
 1 -2.99042422982298 -5.78461910431043  3.46417363946395
 1 -1.32128355485549 -5.95737991509151  2.63295999889989
 1  2.69780445154515 -1.36930662056206 -1.63012708900890
 1  2.75746744694470  0.49316223462346 -2.01410343014301
 1  4.26390561486149 -0.94208221442144  0.44405678187819
 1  4.23420435673567  1.52354345064506 -2.66146948924892
 1  5.63675697409741  2.24726911711171 -1.80052440704070
 1  5.78505382818282  0.82796312651265 -2.98577987728773
 1  6.71232425572557  1.58241446914691  0.24213171087109
 1  6.34116746474647 -0.12589583848385  0.55857686478648
 1  7.39857359945995 -1.03465453715372 -1.26774090279028
 1  7.96115764676468  0.52026890339034 -1.88268841574157
 1  8.99968606580658  1.00545316181618  0.08953291579158
 1  9.04464228702870 -0.65568392379238  0.69168378697870
 1  10.34506621812181  0.12390715701570 -1.91723555415542
 1  9.04059055545555 -2.12749979427943 -1.78249321052105
 1  10.87923100780078 -2.43185969856986 -2.08366455245525
 1  10.19276675027503 -2.60979260186019 -0.47586967766777
 1  11.56041080328033  0.89638404590459  0.22384434783478
 1  11.33626403610361 -0.84501683978398  1.08492596559656
 1  12.77726346204620 -1.51323818521852 -1.16053438833883
 1  12.97754666066607  0.23873335233523 -1.78735709950995
 1  13.73626512971297  1.13521677717772  0.46740340084008
 1  13.80428651895190 -0.63166560386039  0.98372354205421
 1  15.16542893499350  0.56589645004500 -1.48691835133513
 1  15.55476747774778 -2.47887461336134 -0.37058465606561
 1  14.98233576537654 -1.90599879347935 -1.96280400080008
 1  16.63638169676968 -1.71111504010401 -1.59266137493749
 1  15.92358756845685  1.37050612331233  0.75852927392739
 1  16.37709941194120 -0.56588298399840  1.06616954865487
 1  18.18029722162217 -0.52948991279128 -0.34894090169017
 1  17.80033011421142  0.90771202970297 -1.18218170207021
 1  18.35067375017502  2.04129602920292  1.02122722362236
 1  19.00283656105610  0.67731134243424  1.72403875547555
 1  20.73153322002200  0.11920835663566 -0.11849409900990
 1  20.02129896319632  2.98899788468847 -0.88340861036104
 1  21.35912202610261  2.22970884878488 -1.12635388938894
 1  20.10999183238324  1.55213661596160 -1.97506793009301
 1  20.98583859915992  1.01652095589559  2.13009245084508
 1  22.27371201170117  1.44962349354936  1.18461272747275
 1  20.69438197079708  2.61575525172517  1.59707563876388

