%nproc=4
%Mem=2GB
# td=(NStates=1) CAM-B3LYP/6-31G(d,p) 

TD

0 1
12 -7.11341301060106  0.59605784648465 -0.00432238363836
 6 -4.92318119921992 -1.95292740404040  0.45056069096910
 6 -4.78197750405041  2.82093642094209  1.17844130133013
 6 -9.35839042784278  3.14245664506451 -0.33100443344334
 6 -9.51811283888389 -1.78800897589759 -0.87122523752375
 7 -5.07082986458646  0.42404366486649  0.68790631103110
 6 -4.37071467676768 -0.66179680008001  0.78819072187219
 6 -2.91583254445445 -0.46187145924592  1.24264970617062
 6 -2.99518980818082  1.00650178267827  1.71327413381338
 6 -4.33220130683068  1.47021740214021  1.14744100530053
 6 -3.00389818081808  1.19491597889789  3.19706323242324
 6 -1.84807908880888 -0.65339935003500  0.18463778957896
 6 -0.42921117511751 -0.50014824622462  0.58929751265127
 6  0.54263364176418 -0.57769120122012 -0.57156880868087
 8  0.21127167686769 -1.03464486828683 -1.71626090639064
 8  1.77227425242524 -0.33269817661766 -0.15813003310331
 7 -7.06712432093209  2.63753516081608  0.40451560836084
 6 -5.95587271827183  3.42730368426843  0.76823480748075
 6 -6.33166115581558  4.78690932133213  0.86104386888689
 6 -7.67511810721072  4.83107299399940  0.54701160816082
 6 -8.09263981718172  3.49084937623762  0.12226256545655
 6 -5.48540432163216  5.82114320562056  1.32306883208321
 6 -8.57082629502950  5.96555162316232  0.39138916081608
 6 -8.20442964076408  7.19164524882488  0.04619035673567
 7 -9.11244628032803  0.67377385568557 -0.57690939623962
 6 -9.84700635963596  1.84839552215222 -0.60562568676868
 6 -11.15560030293029  1.52378336873687 -1.09503425302530
 6 -11.20281880258026  0.08712258955896 -1.28113737993799
 6 -9.92581246494649 -0.45358384648465 -0.88282758565857
 6 -12.25821406350635  2.52880516141614 -1.26903743464346
 6 -12.38886893259326 -0.82041310351035 -1.74685986318632
 6 -12.25318165016502 -1.12096598179818 -3.27687579297930
 7 -7.26960321242124 -1.42964232583258 -0.24629774847485
 6 -8.30699592189219 -2.25425136463646 -0.49771757765777
 6 -7.82757042454245 -3.59641382428243 -0.45835426442644
 6 -6.52101762376238 -3.57802211771177 -0.01955444754475
 6 -6.25809058725873 -2.17833398789879  0.08995061646165
 6 -8.65733607830783 -4.82361518041804 -0.76263581058106
 6 -5.30105664336434 -4.40131611691169  0.17042554245425
 8 -5.10778214001400 -5.59282193579358  0.07374340914091
 6 -4.19426283628363 -3.36752968706871  0.44609550155015
 6 -3.51859622382238 -3.65858194279428  1.82400358005801
 8 -3.81215487008701 -3.13581681448145  2.92090580588059
 8 -2.64167551545155 -4.63561171367137  1.73964205220522
 6 -2.16932957145715 -5.21346181548155  3.05880721772177
 6  2.81483526012601 -0.73682293999400 -1.14866024092409
 6  4.16536985938594 -0.49137298669867 -0.51969449814982
 6  5.16633024042404  0.40529385388539 -0.96976687688769
 6  5.03787120372037  1.20245478177818 -2.25355244634463
 6  6.42094855245525  0.57319612651265 -0.17268395459546
 6  7.57990572947295 -0.08133001490149 -0.88494816351635
 6  8.95385446784679 -0.05176490999100 -0.07834042824282
 6  10.21424231723172 -0.55261235953595 -0.91561795619562
 6  10.00960814701470 -2.04614394929493 -1.32984464596460
 6  11.42005312241224 -0.41242213281328 -0.09278908020802
 6  12.69979714871487 -0.57454397029703 -0.79397993779378
 6  13.91929761756176 -0.10495725892589  0.17141435443544
 6  15.36057140114011 -0.19438204990499 -0.51124417471747
 6  15.55618972117212 -1.67163994979498 -0.98544582438244
 6  16.33546680068007  0.40569495559556  0.38827801250125
 6  17.76035173947395  0.61103922972297 -0.11482976287629
 6  18.65775117461746  1.36366821362136  0.75727808950895
 6  20.12291997179718  1.43806955155516  0.23468307190719
 6  20.27469769866986  2.07806345434543 -1.09219504090409
 6  21.04377225132513  1.94335870527053  1.40528723032303
 1 -4.05775603410341  3.43973235493549  1.38119264026403
 1 -10.08274202590259  3.94242182608261 -0.27611191379138
 1 -10.25045430723072 -2.56422647734774 -0.99952349984998
 1 -2.62333102380238 -1.02542220592059  2.06295353395339
 1 -2.17092673067307  1.64387287588759  1.07801216771677
 1 -2.22428615191519  0.71072656165617  3.62698291169117
 1 -3.14062884908491  2.21026048264826  3.50680524802480
 1 -3.70652163336334  0.60253462116212  3.67470135463546
 1 -1.60281280818082 -1.58350427082708 -0.27921290729073
 1 -2.09823402560256  0.10763285458546 -0.59685478707871
 1 -0.24853194719472  0.54310223372337  0.97423967586759
 1 -0.23990994469447 -1.19404237963796  1.36628950485048
 1 -4.59326149384939  6.01133630873087  0.78911069326933
 1 -5.92498716901690  6.68253805260526  1.50604529372937
 1 -5.14967819661966  5.66200137153715  2.46780045874587
 1 -9.65751325022502  6.02085502160216  0.52776062056206
 1 -9.02092273267327  8.10590918041804 -0.03533293999400
 1 -7.19258429502950  7.50991156035604 -0.40729520012001
 1 -11.89834524732473  3.10257756305631 -2.07849414781478
 1 -13.32359757325732  2.27087272537254 -1.41947547124712
 1 -12.14077103850385  3.32037512291229 -0.36901839983998
 1 -12.40370289838984 -1.66971937013701 -1.16523673157316
 1 -13.21714771837184 -0.41078489148915 -1.52752010901090
 1 -12.96136660286028 -2.03079431863186 -3.77589058675868
 1 -12.37522769676968 -0.08181690759076 -3.81823939893989
 1 -11.18368171577158 -1.50442338633863 -3.33950306580658
 1 -9.36466736263626 -4.55251810011001 -1.63992157355736
 1 -7.68349205020502 -5.75303541174117 -1.26738096619662
 1 -9.28198036383638 -5.37430421742174  0.15030677447745
 1 -3.36120625262526 -3.45461704620462 -0.27736438943894
 1 -1.44810590059006 -4.36455483278328  3.56217290429043
 1 -2.94216940434043 -5.65368601100110  3.54976219831983
 1 -1.48060948744874 -6.07850202730273  2.70680738363836
 1  2.85284995609561 -1.90416010591059 -1.37398147444744
 1  2.73462516271627 -0.27072415401540 -2.10596261606161
 1  4.32574179847985 -0.93715172137214  0.52103447964796
 1  3.92789372567257  1.22364346064606 -2.44085742804280
 1  5.33422672107211  2.23247763796380 -2.16412076667667
 1  5.80584590739074  0.64338466866687 -2.90378167746775
 1  6.40041306460646  1.77624385208521 -0.02533503580358
 1  6.19050239823982  0.04765151625162  0.73606461356136
 1  7.20719446154615 -0.95872694439444 -1.22259638833883
 1  7.85836736773677  0.37940481698170 -1.87448759565957
 1  9.16306240344034  0.97978059455946  0.32066602910291
 1  8.86788461126113 -0.88330668606861  0.68026264486449
 1  10.38110982248225  0.11802656895690 -1.81825565616562
 1  9.05297179357936 -2.06541358565857 -2.09671463266327
 1  11.01055414011401 -2.43349986258626 -1.68256444244424
 1  9.81027850145015 -2.67327895049505 -0.56085817651765
 1  11.50330509270927  0.61127553505350  0.24719668306831
 1  11.39398980868087 -1.07043938203820  0.74710218321832
 1  13.09858559425943 -1.63540040144014 -0.82580091499150
 1  12.66101500750075 -0.18145866686669 -1.71507987178718
 1  13.73668517171717  0.82999625512551  0.45664232473247
 1  13.87526361666167 -0.87270970827083  1.05089025872587
 1  15.31255364746475  0.35871573197320 -1.41037069656966
 1  15.09900190119012 -2.49785651155115 -0.07160475807581
 1  14.98886641844184 -1.86649484308431 -1.97576529692969
 1  16.63732179077908 -1.86578050665066 -1.14803691249125
 1  15.95503071277128  1.31172024472447  0.89210263126313
 1  16.74043574557456 -0.47425382108211  1.08762169386939
 1  18.14311350325033 -0.19231619541954 -0.69532554015402
 1  17.40564064526453  1.45166642514251 -0.90458394229423
 1  18.37035571837184  2.49589148874887  0.97790289118912
 1  18.57737401480148  0.75452906420642  1.76737308890889
 1  20.58479854655466  0.39446588238824  0.13089083948395
 1  19.81110794409441  3.19506849174918 -1.24044431393139
 1  21.30104621852185  2.28043392129213 -1.46985823982398
 1  19.51332216541654  1.62434383668367 -1.72069249254925
 1  21.11690170547055  1.13869317311731  2.27827726932693
 1  22.07214185468547  1.98296682788279  0.89575384158416
 1  20.71821435403540  2.98627230343034  1.63259919111911

