%nproc=4
%Mem=2GB
# td=(NStates=1) CAM-B3LYP/6-31G(d,p) 

TD

0 1
12 -7.15744741404140  0.64488272897290  0.02547059565957
 6 -4.79344822592259 -2.00780289158916  0.51796743164316
 6 -4.89179848614861  2.72858718601860  1.19746320352035
 6 -9.35398998779878  3.16248864826483 -0.35356668966897
 6 -9.59881090869087 -1.63134330933093 -0.71709982498250
 7 -5.03584636623662  0.46313757425743  0.62238975937594
 6 -4.30750835613561 -0.76391701210121  0.68648055085509
 6 -2.91185214641464 -0.38812408450845  1.25776121732173
 6 -2.96236652585259  1.09828096059606  1.66804961136114
 6 -4.34865295199520  1.42233261366137  1.14243050425043
 6 -3.00430822182218  1.28507499479948  3.15987951405141
 6 -1.93204748564856 -0.56913092319232 -0.00387106130613
 6 -0.45433368736874 -0.33965219661966  0.49603818671867
 6  0.52213159155916 -0.63670710281028 -0.65424707650765
 8  0.16859740944094 -1.02306371017102 -1.74499377967797
 8  1.77163418841884 -0.47953286008601 -0.23299751985199
 7 -7.12288989748975  2.66561796909691  0.28865402220222
 6 -6.12811994299430  3.38401935583558  0.83926191019102
 6 -6.42125011471147  4.77681831223122  0.90894865936594
 6 -7.71391198659866  4.88940882758276  0.41779868686869
 6 -8.15425597879788  3.49960025132513  0.09792013121312
 6 -5.40621640284028  5.77273836513651  1.39169569476948
 6 -8.60134934733473  5.99955502350235  0.39377939983998
 6 -8.17963716151615  7.27448353265327  0.20578631633163
 7 -9.11881691739174  0.67420389868987 -0.41276298159816
 6 -9.84007566656666  1.80002068466847 -0.65461058525853
 6 -11.18549329222922  1.51027201760176 -1.07676242584258
 6 -11.22827134783478  0.10799467676768 -1.26352561876188
 6 -9.89922980668067 -0.34541302940294 -0.79141844474447
 6 -12.22844108620862  2.55071735263526 -1.39554008490849
 6 -12.36835688138814 -0.70502156435644 -1.61949712691269
 6 -12.36910324232423 -1.19268315351535 -3.13464156955696
 7 -7.17241349344935 -1.44165352695270 -0.13789690839084
 6 -8.31856707900790 -2.23279921942194 -0.53538134403440
 6 -7.87739540704070 -3.59969415231523 -0.54113254225423
 6 -6.59251477347735 -3.53354767026703 -0.09337182928293
 6 -6.25449022722272 -2.17420357485749  0.09335095649565
 6 -8.69832017671767 -4.81638445734573 -0.82476202320232
 6 -5.44562109980998 -4.40191617691769  0.17035553545355
 8 -5.17883924572457 -5.63010566416642  0.10325636043604
 6 -4.20102351235123 -3.38991192529253  0.57517840984098
 6 -3.71207557175718 -3.72514859945995  1.82767394709471
 8 -3.87403105770577 -3.14025725852585  2.96933064836484
 8 -2.81500284818482 -4.74956310881088  1.66638472647265
 6 -2.28506114461446 -5.27676814611461  2.97192852985299
 6  2.85800957755776 -0.75795505320532 -1.23347872277228
 6  4.15884920732073 -0.55400925032503 -0.56388891759176
 6  5.17799140654065  0.09193251775178 -0.98801870207021
 6  5.14614203080308  1.01107564386439 -2.34026111721172
 6  6.44832128972897  0.17469627652765 -0.19160584678468
 6  7.65080281918192 -0.29867174907491 -0.95612528122812
 6  9.00418950135013 -0.09120885438544 -0.13165575977598
 6  10.18365925892589 -0.55822292059206 -0.83548994339434
 6  10.10841802800280 -1.95610494539454 -1.47276893839384
 6  11.45032614971497 -0.21907279787979  0.01684188288829
 6  12.80006717571757 -0.46726324222422 -0.61467200700070
 6  14.00890657845785 -0.09027579077908  0.32119933293329
 6  15.32760810481048 -0.20087269896990 -0.36235928622862
 6  15.64064816701670 -1.67088987478748 -0.86899417921792
 6  16.49009226322632  0.35908029412941  0.50435962066207
 6  17.76512221652165  0.69457758355836 -0.23599187908791
 6  18.80950635013501  1.31112295909591  0.74906726842684
 6  20.38871655145515  1.48898464306431  0.24250385398540
 6  20.34240446934693  2.18771441944194 -1.11224704610461
 6  21.13432130623062  2.23559792919292  1.30249695129513
 1 -4.21431168966897  3.70182856455646  1.64932945394539
 1 -10.24189794149415  3.93362094599460 -0.58041234383438
 1 -10.25797505930593 -2.30621067576758 -0.94637818531853
 1 -2.65908459915992 -1.04354401810181  1.96895413401340
 1 -2.22933257125713  1.84004249284929  1.27504187068707
 1 -2.01939566286629  0.92237772677268  3.48790900430043
 1 -3.22337712391239  2.33588304490449  3.35115968346835
 1 -3.93873485468547  0.83377774547455  3.55426931143114
 1 -2.01177370427043 -1.55665158555856 -0.41604659065907
 1 -2.20347454965497  0.27131922322232 -0.76118121972197
 1 -0.18458555255526  0.52814073757376  0.86796904880488
 1 -0.03375932963296 -1.14689766516652  1.29825270117012
 1 -4.61699386708671  6.12494766986699  0.67604938713871
 1 -6.05328999929993  6.56808660746075  1.63049773897390
 1 -4.95630885968597  5.33773894529453  2.15787946664666
 1 -9.54758225712571  5.71698463456346  0.61500934543454
 1 -8.93938457885788  8.00702929242924  0.21436202950295
 1 -7.07856289288929  7.52123269246925 -0.04043851445145
 1 -12.08473388618862  3.17805511081108 -2.30998729712971
 1 -13.22117733123312  2.03245888398840 -1.28245176887689
 1 -12.18373533493349  3.31269435483548 -0.56329782778278
 1 -12.30149267736774 -1.50736313451345 -1.02993320122012
 1 -13.29940594419442 -0.15644945794579 -1.58427578457846
 1 -13.39215968216822 -1.76857809700970 -3.52257525522552
 1 -12.32974314831483 -0.27127585348535 -3.87939551455146
 1 -11.47325067266727 -1.88974191819182 -3.40691980748075
 1 -8.82226312221222 -4.66430927922792 -1.87156473787379
 1 -8.06930063106311 -5.57972808100810 -0.74415864396440
 1 -9.66954912071207 -4.90455724272427 -0.14699295549555
 1 -3.52230236223622 -3.52178376287629 -0.20550720372037
 1 -1.93022411241124 -4.40954933223322  3.49777646464646
 1 -3.13803899129913 -5.72796343874387  3.53317053915392
 1 -1.02996442294229 -5.63143732083208  2.71979868276828
 1  2.58636330743074 -1.93491318121812 -1.37612168846885
 1  2.84608630883088 -0.26118319991999 -2.12281430123012
 1  4.33166239053905 -0.93574158035804  0.28981135733573
 1  4.15201613791379  1.13836493279328 -2.81534487678768
 1  5.25174847324732  2.25176956715672 -2.27261161576158
 1  5.96248157095710  0.74982531273127 -3.01235253455346
 1  6.77530055335534  1.16789301700170  0.13401089878988
 1  6.30157350535053 -0.69138238713871  0.66738774587459
 1  7.61936567866787 -1.40282135383538 -1.17905203390339
 1  7.79744127512751  0.23222009850985 -1.87851799869987
 1  9.14089018621862  1.00546316281628  0.25002896539654
 1  8.74789261206121 -0.70493884928493  0.90561518011801
 1  10.32237394889489  0.00595536183618 -1.79661349194920
 1  9.44619111551155 -1.97129417371737 -2.23226818801880
 1  11.07586067076708 -1.98458497109711 -1.88030421642164
 1  9.80036751035104 -2.55807743034303 -0.66452854355436
 1  11.28034279647965  0.72172658015802  0.31652361576158
 1  11.33480389008901 -1.05520785888589  0.94765223822382
 1  13.16526226192619 -1.46957381878188 -0.98961729662966
 1  12.88578748474847  0.32524200320032 -1.45029339313931
 1  13.83520502370237  0.84157741324132  0.78094475497550
 1  14.30419650995099 -0.83875631293129  1.19022419211921
 1  15.37342973507351  0.48897875827583 -1.21517117661766
 1  15.85986798779878 -2.48182490839084 -0.08367596519652
 1  15.05425295709571 -1.83129132273227 -1.78479620002000
 1  16.46257431603161 -1.67240116871687 -1.53379548834884
 1  16.17971318101810  1.32699177187719  1.00472389338934
 1  16.49166086808681 -0.32755915161516  1.26628956065607
 1  18.26043523542354 -0.14232119591959 -0.59467547514751
 1  17.65548562976298  1.35945720422042 -1.18565204910491
 1  18.52470115291529  2.30698259785979  0.85656075697570
 1  18.84430070747075  0.68598220952095  1.74480083168317
 1  20.96534660136014  0.65483191899190  0.11475922632263
 1  19.86076290959096  3.18131711661166 -1.00647091659166
 1  21.28341445534554  2.27649352725273 -1.62907416141614
 1  19.85732656585659  1.62482388468847 -1.92956337963796
 1  21.06088610391039  1.80540984478448  2.28220766236624
 1  22.28865350585058  2.21853038423842  0.98076234243424
 1  20.84980751335134  3.34720839703970  1.28827475867587

