%nproc=4
%Mem=2GB
# td=(NStates=1) CAM-B3LYP/6-31G(d,p) 

TD

0 1
12 -7.16236790609061  0.66822506320632  0.14906295489549
 6 -4.85204408550855 -1.91159327062706  0.49308494339434
 6 -4.80801010731073  2.87150147744774  1.19536299349935
 6 -9.38610319911991  3.21156355575558 -0.21695302830283
 6 -9.52619364696470 -1.65840601560156 -0.90144825982598
 7 -5.13525630723072  0.47072833333333  0.68959648004800
 6 -4.35090269556956 -0.68854947534753  0.79463136593659
 6 -3.02418337953795 -0.39688496059606  1.24475991719172
 6 -3.08280857005701  1.05645677817782  1.66404921132113
 6 -4.42687077377738  1.52729310971097  1.18769503070307
 6 -2.85824361536154  1.39888637593759  3.19399292539254
 6 -2.01673595449545 -0.69612362246225  0.21252057785779
 6 -0.60395864986499 -0.46682491389139  0.53648223112311
 6  0.48652803120312 -0.70803423552355 -0.52167381918192
 8  0.10449099879988 -1.24743614741474 -1.62601188148815
 8  1.71918894389439 -0.37842274907491 -0.06955117521752
 7 -7.08749635813581  2.56292770007001  0.39491464826483
 6 -6.01185831683168  3.39631058495850  0.81648963296330
 6 -6.35162315201520  4.79105973637364  0.81214897939794
 6 -7.64987558295830  4.80399028572857  0.38023493049305
 6 -8.13412396559656  3.48722901420142  0.08510885008501
 6 -5.61699748094809  5.95368645994599  1.30723724892489
 6 -8.48013722612261  6.06787185518552  0.25019504140414
 6 -8.14842404020402  7.25500158445845  0.06033177087709
 7 -9.13736877257726  0.71625810411041 -0.44991669696970
 6 -9.92321398039804  1.80216089868987 -0.63619874407441
 6 -11.18689343224322  1.41205219561956 -1.07786253585359
 6 -11.21045956665666  0.14646852415242 -1.21976124232423
 6 -9.97442732643264 -0.37673616171617 -0.84762406530653
 6 -12.27842608470847  2.43388566946695 -1.28814934583458
 6 -12.23953399909991 -0.78314937713771 -1.78899407660766
 6 -12.16008234023402 -1.10613449864987 -3.27254535993599
 7 -7.25854210631063 -1.38085744734473 -0.09734285298530
 6 -8.28077329962996 -2.20686662616262 -0.47753555945595
 6 -7.79372704020402 -3.57050123302330 -0.42791122012201
 6 -6.48476399839984 -3.55993030853085 -0.09512200430043
 6 -6.20798557675768 -2.12035819031903  0.11519314071407
 6 -8.68720906560656 -4.79484230313031 -0.81286083308331
 6 -5.32139867756776 -4.38172415771577  0.15321382128213
 8 -5.13692505430543 -5.56081873547355  0.17872390719072
 6 -4.22142555255525 -3.27237017111711  0.49638053005301
 6 -3.54504886908691 -3.73125921052105  1.77570875057506
 8 -3.82838649324933 -3.20653388618862  2.83491720702070
 8 -2.69350069796980 -4.78707686018602  1.60772886088609
 6 -2.05022766126613 -5.27403787308731  2.80757209420942
 6  2.74632840944094 -0.64719397709771 -1.13810918581858
 6  4.11243456585659 -0.50717456685669 -0.45707823652365
 6  5.12901650905090  0.28334165866587 -0.90366026622662
 6  5.12616003260326  1.05264980128013 -2.16999409050905
 6  6.48986544414441  0.25004381128113 -0.12998968516852
 6  7.56127386628663 -0.43027490939094 -0.99678934763476
 6  8.99356843924392 -0.34529426292629 -0.22487508170817
 6  10.19391028402840 -0.74137123542354 -0.99183557795780
 6  10.17908509470947 -2.26758609350935 -1.33406506800680
 6  11.51761287838784 -0.32530342094209 -0.20107990929093
 6  12.85871304030403 -0.48354487038704 -0.92021256105611
 6  14.01431711951195 -0.05738250145015  0.03003021602160
 6  15.43598894289429 -0.15960857255726 -0.54895794609461
 6  15.68421252345235 -1.57452023782378 -1.03538081788179
 6  16.42127538153815  0.45466985308531  0.50227941264126
 6  17.70141584588459  0.69483760956096 -0.16697497739774
 6  18.69236463596360  1.40877272407241  0.85874823652365
 6  20.15084276407641  1.55911165576558  0.30442004560456
 6  20.27127735663566  2.41531717971797 -0.92223804520452
 6  21.13095096919692  2.01128549794979  1.38801550315031
 1 -4.11959221772177  3.56771515321532  1.73465798679868
 1 -10.11074482618262  3.97652523642364 -0.39351365396540
 1 -10.27928719051905 -2.41112116681668 -1.25882943044304
 1 -2.47230592129213 -1.00216988068807  2.10259749834984
 1 -2.24160379837984  1.73009149774977  1.16119048554855
 1 -1.85837956125612  1.04270975997600  3.45619583298330
 1 -2.80717550375038  2.58225768236824  3.36566113361336
 1 -3.67670865206521  0.81526589428943  3.70793467796780
 1 -2.01415394229423 -1.55636155655566 -0.15755074107411
 1 -2.27411161336134 -0.07717562626263 -0.71393649524952
 1 -0.32616971097110  0.51383930743074  1.02203445534553
 1 -0.13673962766277 -1.14312728812881  1.13556643254325
 1 -5.05608777647765  6.19880505560556  0.50980276247625
 1 -6.29309397969797  6.69643944274427  1.78896358555856
 1 -4.77696092489249  5.60975614701470  2.12393607230723
 1 -9.53717121602160  5.85702863896390  0.31494933943394
 1 -8.89783042344234  7.99354794429443  0.19657025032503
 1 -7.14712974957496  7.59192976217622 -0.41639611021102
 1 -12.16701211401140  2.85582288758876 -2.26763306170617
 1 -13.25957117061706  1.81144678277828 -1.05921944564456
 1 -12.22292925432543  3.34675776117612 -0.48183968196820
 1 -12.19691221932193 -1.77646004420442 -1.48847905580558
 1 -13.17711371497150 -0.22085589858986 -1.56097345434543
 1 -12.91549201540154 -1.67851909110911 -3.68458145584558
 1 -11.99590976497650 -0.19739846574657 -3.78605618061806
 1 -11.37339068666867 -1.53418636263626 -3.67669678517852
 1 -8.87530842674268 -4.65024787308731 -1.81364894629463
 1 -7.95879958095810 -5.64392450065006 -0.66766099419942
 1 -9.58452061786178 -4.99212599959996 -0.19496775297530
 1 -3.51343147514751 -3.36306789128913 -0.24559121212121
 1 -1.17220831083108 -4.66673505080508  3.16189287628763
 1 -2.93494868226823 -5.33069371177118  3.60397761986199
 1 -1.56216764326433 -6.30898507560756  2.56108281118112
 1  2.39770444154415 -1.49262895279528 -1.70018409470947
 1  2.61253295349535  0.29309222762276 -1.97755977577758
 1  4.20482970727073 -1.06444445064506  0.56283866006601
 1  3.97378831513151  0.90299139543954 -2.39386272857286
 1  5.62813611201120  2.05095948614862 -1.79195354995500
 1  5.58898422122212  0.55753608380838 -3.05858715801580
 1  6.80561358465847  1.32843907160716  0.06402390009001
 1  6.16908025602560 -0.13609685858586  1.04170517761776
 1  7.01044478657866 -1.28686975867587 -0.98336246494649
 1  7.53232476347635 -0.10038316181618 -2.09148929582958
 1  8.98681477867787  0.69429204570457 -0.23288932643264
 1  8.73177099989999 -0.78101645704570  0.75119973857386
 1  10.31989370087009 -0.20267550125012 -2.04165799639964
 1  9.33350984738474 -2.47945498979898 -1.92932789398940
 1  10.90545363006301 -2.47681419401940 -1.98980516651665
 1  10.11872934653465 -3.01773339593959 -0.45474756545655
 1  11.21378614081408  0.65370977847785  0.06442840624062
 1  11.54593500320032 -0.96717905600560  0.77093456645665
 1  13.01118685438544 -1.45524238563856 -1.30237857275728
 1  12.88984789078908  0.09704918391839 -1.84769313311331
 1  13.74748625182518  0.91929518501850  0.43389004950495
 1  13.78095418571857 -0.73883632093209  0.92265743544354
 1  15.48406079817982  0.28355821622162 -1.48158781828183
 1  15.73941594259426 -2.30466719261926 -0.17792539013901
 1  14.96120365216522 -1.99036723032303 -1.62981070147015
 1  16.48511657025703 -1.70139406800680 -1.60881299009901
 1  15.92655786548655  1.35790486318632  0.70187360836084
 1  16.53144484648465 -0.14771116681668  1.42412534423442
 1  18.21091028292830 -0.23633059685969 -0.42741874947495
 1  17.60973105430543  1.40199145764577 -1.07508099199920
 1  18.41410009280928  2.35688758835884  1.25126022692269
 1  18.64646092349235  0.73300691199120  1.74226057765777
 1  20.45086515321532  0.53434987078708  0.07949569997000
 1  19.76172300560056  3.38030701560156 -0.54879514901490
 1  21.53428954285429  2.57926380428043 -1.30186144014401
 1  19.53763459665966  2.02908431073107 -1.76548697199720
 1  21.29693970927093  1.31455075887589  2.21194063566357
 1  22.20912555305530  2.10118865006501  0.89164343054305
 1  20.88596112871287  2.93873754995500  1.99153508470847

