%nproc=4
%Mem=2GB
# td=(NStates=1) CAM-B3LYP/6-31G(d,p) 

TD

0 1
12 -7.19004067336734  0.53750199089909  0.12035008360836
 6 -4.85966484758476 -1.99001111241124  0.52788842374237
 6 -4.83455276157616  2.82664699199920  1.16218967616762
 6 -9.46014060286029  3.01646404580458 -0.32485381838184
 6 -9.50480150775078 -1.78997917291729 -0.93878199319932
 7 -5.12576535813581  0.46277753825383  0.70327784818482
 6 -4.35117272257226 -0.68103872427243  0.79167106990699
 6 -2.94268522972297 -0.32450772287229  1.17191263246325
 6 -3.03673396259626  1.14429556205621  1.66879968636864
 6 -4.37477556425643  1.49823020342034  1.16846310751075
 6 -2.95119291029103  1.25104159145915  3.27583110921092
 6 -1.81747602850285 -0.71539554965497  0.16288561436144
 6 -0.49239749374938 -0.38748698009801  0.61161974487449
 6  0.50648002640264 -0.56301973407341 -0.61926357815782
 8  0.21864241394139 -1.06194759855986 -1.71001028132813
 8  1.84594161916192 -0.10321522832283 -0.26025024512451
 7 -7.08555616411641  2.61397280458046  0.37383254005401
 6 -6.06479361036104  3.36461741564156  0.83058104210421
 6 -6.52305029472947  4.73336396679668  0.87019478397840
 6 -7.79756035143514  4.82958284498450  0.38569547654765
 6 -8.23609416261626  3.47285757705771  0.19962030123012
 6 -5.47607338853885  5.80518160946095  1.38077460266027
 6 -8.72536174857486  5.94538960696070  0.34165418731873
 6 -8.34691388918892  7.14610069436944 -0.06235049734973
 7 -9.16614164986499  0.58699517781778 -0.50787249254925
 6 -9.84844650365037  1.70251093369337 -0.55506063026303
 6 -11.21977672057206  1.45531652205221 -1.09595434503450
 6 -11.29461798249825  0.06587046434643 -1.26813607980798
 6 -9.96489637333733 -0.44826331443144 -0.93499280218022
 6 -12.34637287938794  2.42270455135514 -1.29397992889289
 6 -12.37702774847485 -0.83119418161816 -1.80869604680468
 6 -12.09344567656766 -1.26394027922792 -3.26752485788579
 7 -7.21039729182918 -1.42298165976598 -0.09049216791679
 6 -8.26824204650465 -2.26030196969697 -0.46208401430143
 6 -7.82519018651865 -3.61773595649565 -0.51476990599060
 6 -6.50195571757176 -3.59351366686669 -0.15259775187519
 6 -6.19858463666367 -2.23186934143414  0.12389401080108
 6 -8.69231957665767 -4.84855767466747 -0.80144969196920
 6 -5.29941647934793 -4.41884787008701  0.12351085098510
 8 -5.06461782358236 -5.67419007260726  0.14113014781478
 6 -4.20191360136014 -3.28839177327733  0.47287817981798
 6 -3.56331069526953 -3.64477056165617  1.80619179887989
 8 -3.72199585418542 -3.08859209200920  2.86995071037104
 8 -2.90130147804781 -4.88171632413241  1.75898398639864
 6 -2.38537117561756 -5.18676914621462  2.98639997699770
 6  2.86023980058006 -0.53285254295430 -1.21326670157016
 6  4.15589891229123 -0.28938278767877 -0.48304083278328
 6  5.10570417781778  0.57852117661766 -0.82068196839684
 6  5.04042145874587  1.46870140644064 -2.15567265836584
 6  6.46187264486449  0.77510631753175 -0.12234892109211
 6  7.58494623352335  0.07506562466247 -0.91161082978298
 6  8.86225530793079  0.15114538103810 -0.08946154035404
 6  10.16515740874087 -0.40404750305031 -0.83563995839584
 6  10.11652883908391 -1.87658699359936 -1.21610327182718
 6  11.47526864396440 -0.15345623622362 -0.09504930623062
 6  12.82107927692769 -0.44761127702770 -0.76517705750575
 6  13.95862154995500  0.03321655845585  0.04782199519952
 6  15.33918926292629 -0.24836744844484 -0.49759280958096
 6  15.68906300850085 -1.72850563636364 -0.99863714351435
 6  16.46490974497449  0.23947833393339  0.45817500220022
 6  17.83958966326633  0.41166929272927 -0.21669994989499
 6  18.90056545604561  1.00909275607561  0.73196555825583
 6  20.35778345814581  1.07951369596960  0.28619822342234
 6  20.48385861476147  1.95569121712171 -1.08746456785679
 6  21.34898277237724  1.71468583798380  1.23323002460246
 1 -4.05225548404840  3.52981136283628  1.54910943194319
 1 -10.10028378007801  3.83085066896690 -0.66969127172717
 1 -10.16801606340634 -2.48922897759776 -1.22070561806181
 1 -2.68421711241124 -0.80788045174518  2.11545878447845
 1 -2.14416405440544  1.66555504410441  1.35233960046005
 1 -2.03995771907191  0.77385287428743  3.62494270767077
 1 -3.03074786098610  2.42277173377338  3.53208777627763
 1 -3.88970995219522  0.65670003770377  3.57407129162916
 1 -1.96199872677268 -1.71919784018402 -0.17655264126413
 1 -1.99358356055606 -0.09728763746375 -0.70684578617862
 1 -0.20614770877088  0.73269119261926  0.91360361226123
 1 -0.20986694039404 -1.15983895929593  1.35823869976998
 1 -4.93951611931193  6.24526970207021  0.44866664886489
 1 -5.98080275057506  6.74542434123412  1.62940762996300
 1 -4.97779100790079  5.40402557395740  1.94961864056406
 1 -9.82551004990499  5.65673860996100  0.80214805930593
 1 -9.02147278767877  7.87938652815282 -0.15567497419742
 1 -7.42998803540354  7.33929449864987 -0.38454292489249
 1 -11.97968338113811  3.42615992129213 -1.90563686208621
 1 -13.01964717821782  1.71035667376738 -1.90898442214221
 1 -12.94159112051205  2.58231131653165 -0.27094859285929
 1 -12.42451497959796 -1.68218061626163 -1.16917712561256
 1 -13.31742774637464 -0.33590740374037 -1.71145850285029
 1 -12.96384685088509 -1.75329656885689 -3.78380137783778
 1 -12.28167834183418 -0.28866759265927 -3.85005258025803
 1 -11.18692203980398 -1.95977892189219 -3.55497461296130
 1 -9.36168706460646 -4.84251710001000 -1.47409499089909
 1 -8.14128782978298 -5.75151525972597 -0.75678990709071
 1 -9.58971113691369 -4.77080386738674  0.08799054285429
 1 -3.68435856785679 -3.31121270577058 -0.29879653265327
 1 -1.46478756875688 -4.51351972927293  3.17280396739674
 1 -3.17721290869087 -5.08628927132713  3.91180840294029
 1 -2.03608503500350 -6.22131630873087  2.82025872877288
 1  2.73409808090809 -1.58588827872787 -1.56229030533053
 1  2.71515321552155  0.05039795819582 -2.07485950575057
 1  4.19121834613461 -0.66207421362136  0.53472584878488
 1  3.93329426572657  1.52171326762676 -2.58541188348835
 1  5.43598689708971  2.34173856405641 -1.89407376197620
 1  5.74327965076508  0.95678600880088 -2.98097939723972
 1  6.70985400870087  1.99868609630963 -0.10381288358836
 1  6.21315466346635  0.40039679077908  0.88741974907491
 1  7.19366310841084 -1.00401147284729 -0.97458158685869
 1  7.66315784678468  0.52280915741574 -1.95794594149415
 1  9.33341943914391  1.18153076957696  0.17445140764076
 1  8.64723254605460 -0.32761111651165  0.88642326092609
 1  10.31379309080908  0.05140990729073 -1.96456028662866
 1  9.36309280568057 -2.31239828412841 -1.83564852605261
 1  10.94774785948595 -2.22224873747375 -1.65404159015902
 1  9.97877535113511 -2.49962158475848 -0.29285137583758
 1  11.52464722692269  0.82945735323532  0.35823778717872
 1  11.49480989068907 -0.69671200930093  0.77402487548755
 1  12.95054078977898 -1.42289915131513 -1.03199153405340
 1  12.87080598659866 -0.01337185818582 -1.77240560436044
 1  13.80457196039604  1.10568382388239  0.27179383988399
 1  14.10053614391439 -0.49145158245825  1.09179434913491
 1  15.42638503060306  0.42622248264827 -1.33030268976898
 1  15.66622862386239 -2.51658838473847 -0.30018761636164
 1  15.01406893869387 -2.01541973557356 -1.78993671407141
 1  16.61841990059006 -1.73456738533853 -1.35615772457246
 1  16.17851306100610  1.12342141484148  1.08398181918192
 1  16.70672237423743 -0.67506390209021  1.10001293299330
 1  18.16109530143014 -0.62546951075108 -0.58754476207621
 1  17.69894997619762  1.01098235673567 -1.15562904680468
 1  18.55561424422442  1.87511941154115  1.24612971387139
 1  18.92971924932493  0.40874448574857  1.67597394899490
 1  20.84033410011001  0.21487792359236  0.12006975737574
 1  20.24559139243924  3.01108009290929 -0.81258152765277
 1  21.50324643854385  1.85546142404240 -1.49462071607161
 1  19.74904573777378  1.58365976827683 -1.84495491879188
 1  21.34094410971097  1.20304960876088  2.16470591219122
 1  22.24455909640964  1.87582611381138  0.97132139833983
 1  21.06047858045805  2.68865254145415  1.42307823902390

