%nproc=4
%Mem=2GB
# td=(NStates=1) CAM-B3LYP/6-31G(d,p) 

TD

0 1
12 -7.16241791109111  0.61074931563156  0.05866391499150
 6 -4.89141802290229 -1.92643475477548  0.50078571347135
 6 -4.82382168846885  2.87795212251225  1.24170762796280
 6 -9.43307789658966  3.19202160156016 -0.49664099709971
 6 -9.65747677527753 -1.72381255625563 -0.78530664566457
 7 -5.18713149474948  0.51083234373437  0.81160868126813
 6 -4.37470507580758 -0.71186180658066  0.76960886368637
 6 -2.87183814501450 -0.39520479257926  1.21568700990099
 6 -3.04188447764776  1.01759289178918  1.70261306770677
 6 -4.44480256695670  1.49975035543554  1.25539180038004
 6 -3.03183097409741  1.25997248454846  3.18446197229723
 6 -1.97304158505851 -0.63934794489449  0.11956128192819
 6 -0.40983923792379 -0.42328055945595  0.51920050295030
 6  0.43718309670967 -0.65553898599860 -0.52085373717372
 8  0.12571312101210 -1.06297770157016 -1.59205848614861
 8  1.77396442144214 -0.44142904970497 -0.21196541664166
 7 -7.04867247574758  2.60195160246025  0.31991714851485
 6 -6.06221335233523  3.36051700560056  0.81942992699270
 6 -6.45370336003600  4.75246587698770  0.80702846734673
 6 -7.70938153355335  4.77542742944294  0.33615052205221
 6 -8.13042359555956  3.48973926522652  0.00371071027103
 6 -5.52825860706071  5.84476556785679  1.39123564876488
 6 -8.59249846224622  5.94878994699470  0.31535155705571
 6 -8.13850304810481  7.23283936823682 -0.07628189048905
 7 -9.10108514421442  0.65003148144814 -0.52085379067907
 6 -9.76340799979998  1.85346602920292 -0.68605372957296
 6 -11.17410215311531  1.45204619501950 -1.10377512711271
 6 -11.21531005170517  0.10166404370437 -1.22647191339134
 6 -9.95201508520852 -0.34567305540554 -0.76232553545355
 6 -12.24808305040504  2.46185846674667 -1.26970750165017
 6 -12.31232127782778 -0.71923298549855 -1.72294747194719
 6 -12.41300763276328 -1.07431131633163 -3.17035514091409
 7 -7.24351060316032 -1.38253761536154 -0.16032915161516
 6 -8.31156637893789 -2.22052799229923 -0.57128493439344
 6 -7.84989265676568 -3.59814399729973 -0.53074150315031
 6 -6.53488901090109 -3.58897321282128 -0.14444693679368
 6 -6.19169394759476 -2.22187834233423  0.05759738113811
 6 -8.66145649034903 -4.74945776467647 -0.89685923292329
 6 -5.33971050875088 -4.29961594689469  0.21089958985899
 8 -5.16527788958896 -5.59017167076708  0.25570160496050
 6 -4.23032644264426 -3.32325525962596  0.55168606060606
 6 -3.60990535473547 -3.71507759235924  1.94918609830983
 8 -3.78196185078508 -3.25175840864086  2.99383309860986
 8 -2.72916426432643 -4.74986313881388  1.69828791679168
 6 -2.03051569006901 -5.27664813411341  2.91265260226023
 6  2.71715549214921 -0.52564182188219 -1.27183255815582
 6  4.07171049344934 -0.52166601600160 -0.64191672037204
 6  5.08003161056106  0.26818014251425 -0.86056595679568
 6  5.09651706830683  1.22416695299530 -2.04122121322132
 6  6.46521297889789  0.28280708760876 -0.20872755895590
 6  7.58845658455846 -0.27931981388139 -1.02560222892289
 6  8.89055813821382 -0.34938467196720 -0.21211380558056
 6  10.26571746474647 -0.59764686298630 -0.93883027742774
 6  10.18784597079708 -2.00456979187919 -1.50568222972297
 6  11.32689380648065 -0.46742763336334  0.03666386508651
 6  12.75459262826283 -0.60604712061206 -0.70281082088209
 6  13.95845153295330 -0.09313607680768  0.09057627062706
 6  15.42224756875688 -0.26379899159916 -0.48043109340934
 6  15.79658376057606 -1.62976576237624 -1.04246152595260
 6  16.49152240624062  0.42291667776778  0.48690787548755
 6  17.89433513781378  0.71349947574757 -0.20120840074007
 6  18.81949734923493  1.32070391719172  0.75349771147115
 6  20.24092177197720  1.55646139073907  0.24150375397540
 6  20.24166439533953  2.44537018501850 -0.90739656105611
 6  21.32131000510051  1.95644001340134  1.29998670027003
 1 -4.02107236573657  3.57598598029803  1.59308382938294
 1 -10.11470522222222  3.92083966786679 -0.89045334793479
 1 -10.33835309710971 -2.55630568526853 -1.04836838433843
 1 -2.88254694539454 -1.15073473717372  2.07223446204620
 1 -2.35212485048505  1.73638212681268  1.18348271477148
 1 -2.22536625992599  0.57827331633163  3.67225743914392
 1 -2.88388317451745  2.38073753035304  3.42979754725473
 1 -4.01166214741474  1.06857122482248  3.77405128962896
 1 -2.03949647654765 -1.50724664506451 -0.47606259225923
 1 -2.14513871607161  0.19210130143014 -0.54840994259426
 1 -0.35506260026003  0.54943286678668  1.03851610351035
 1 -0.23415936963696 -1.02110508590859  1.34410728662866
 1 -4.94512668036804  6.42122729782978  0.70150193239324
 1 -6.03848851915192  6.73082288108811  1.64647933713371
 1 -4.92464569336934  5.64680985238524  2.30274395309531
 1 -9.62702020092009  5.93609654575458  0.40152799729973
 1 -8.75741638203820  8.26149473897390 -0.23636304300430
 1 -7.10736577317732  7.34824539373937 -0.24994946554656
 1 -12.23623903670367  3.12572987828783 -2.23860015841584
 1 -13.35158037153715  2.06549218731873 -1.21917544124412
 1 -12.37473443484349  3.15827891329133 -0.34255575357536
 1 -12.24677720582058 -1.55209760796080 -1.07228743664366
 1 -13.16413241684169 -0.17328114111411 -1.38941629862986
 1 -13.37168763496350 -1.35909714891489 -3.73789678737874
 1 -12.11006118011801 -0.09281800770077 -3.63923149814982
 1 -11.55888923652365 -1.70344328832883 -3.51747086258626
 1 -9.17955885178518 -4.57166001430143 -1.98287586898690
 1 -8.08653235423542 -5.67087719591959 -0.80542477057706
 1 -9.41188335413541 -4.96610339733973 -0.23832208840884
 1 -3.30984111611161 -3.43264484898490 -0.31441809480948
 1 -1.48582967296730 -4.47973635093509  3.72982966996700
 1 -2.83413860126013 -5.96573721612161  3.46576379847985
 1 -1.40110153665367 -6.18738291539154  2.43917061996200
 1  2.60530520162016 -1.53607329722972 -1.72643671997200
 1  2.64508620882088  0.37481039943994 -1.79115113491349
 1  4.36754597889789 -1.45059306550655  0.20735311151115
 1  4.05865680198020  1.44834593089309 -2.41809515181518
 1  5.71707500590059  2.16210060026003 -1.86098045264526
 1  5.65175049784979  0.73800413061306 -2.68265956525653
 1  6.98894191749175  1.29262549024902  0.04977247494749
 1  6.58274162216222 -0.38172142104210  0.69977098419842
 1  7.38231197329733 -1.30738180988099 -1.56131025972597
 1  7.97410894189419  0.27974485098510 -1.76298644554455
 1  9.02427852505250  0.68863147964797  0.33934789728973
 1  8.65610343314331 -0.83855221062106  0.60062468106811
 1  10.45258697019702  0.06342110841084 -1.59314314491449
 1  9.42515901230123 -1.96579362366237 -2.52965792699270
 1  11.19542262696270 -2.27004351695170 -1.98702488848885
 1  9.88333580718072 -2.87588921152115 -0.99124121482148
 1  11.34049881208121  0.29442384988499  0.60876283968397
 1  11.33462387208721 -1.28632097019702  0.86466393939394
 1  12.93628936463646 -1.68866572797280 -0.94743307820782
 1  12.60587949394939 -0.03727424842484 -1.70892925672567
 1  13.87004850805081  1.15783903940394  0.33642030253025
 1  13.84863095339534 -0.53365580288029  1.19579474917492
 1  15.18932132423242  0.50233009340934 -1.27138679817982
 1  15.90546254725473 -2.37628435433543 -0.14309190679068
 1  15.00981851365137 -1.96782497609761 -1.73868158855886
 1  16.81705976457646 -1.57732166076608 -1.35004711351135
 1  16.06085129482948  1.33860293299330  0.90119354035404
 1  16.55300700270027 -0.17958435413541  1.26363929562956
 1  18.26376556845685 -0.16168313211321 -0.41037704530453
 1  17.71892197339734  1.22339359785979 -1.23948743264326
 1  18.37916659945994  2.26849874947495  0.94609971087109
 1  18.77839411681168  0.60737434873487  1.68812516411641
 1  20.69206927362736  0.58830526632663 -0.07218946854685
 1  20.10226706000600  3.53121210611061 -0.42821309080908
 1  21.26084219811981  2.53457933583358 -1.45986724072407
 1  19.58818965216522  2.25113651595160 -1.73935435873587
 1  21.44052406770677  1.30932023582358  2.16364580618062
 1  22.27853249374937  2.09774830603060  1.03937820402040
 1  21.02509504210421  2.93411708790879  1.81021695289529

