%nproc=4
%Mem=2GB
# td=(NStates=1) CAM-B3LYP/6-31G(d,p) 

TD

0 1
12 -7.20146181548155  0.58615685638564 -0.00548249964996
 6 -4.92053093419342 -1.98273038433843  0.59858549344934
 6 -4.84233353965397  2.84491881918192  1.16669012621262
 6 -9.46050063886389  3.03543594299430 -0.37687902090209
 6 -9.55246627422742 -1.77431760676068 -1.00448856385639
 7 -5.07178996059606  0.46149741024102  0.65849336973697
 6 -4.40581818711871 -0.70338095849585  0.83387529032903
 6 -2.92070303150315 -0.35139041114111  1.31217665886589
 6 -3.03739402860286  1.12042317481748  1.83029583598360
 6 -4.38152623932393  1.55531591199120  1.17146340754075
 6 -2.87110490149015  1.22625911321132  3.31175470157016
 6 -1.97854213511351 -0.60549455955596  0.14335366116612
 6 -0.42977123112311 -0.48625685708571  0.55544412731273
 6  0.51765114351435 -0.72219565166517 -0.59174082588259
 8  0.16360691039104 -1.10888229202920 -1.71109038933893
 8  1.76717374237424 -0.37411231803180 -0.24405862596260
 7 -7.16730433893389  2.61907331463146  0.29516467326733
 6 -6.05038216921692  3.41760271417142  0.80422840684068
 6 -6.51070906060606  4.77030766116612  0.93790155465547
 6 -7.71611220662066  4.92031191789179  0.39371627862786
 6 -8.15988654185418  3.54667495879588  0.09520986018602
 6 -5.65366114731473  5.88740983228323  1.47305383058306
 6 -8.65189440184018  6.04523959195920  0.34747476937694
 6 -8.21148034583458  7.37351343564356  0.15265100280028
 7 -9.09310434613461  0.71206768506851 -0.63006471177118
 6 -9.81616327532753  1.80442112471247 -0.69373449764976
 6 -11.16038078097810  1.47800879127913 -1.17660240984098
 6 -11.18283680438044  0.08498237553755 -1.29907917411741
 6 -9.88180806450645 -0.39141762986299 -0.85088439133913
 6 -12.28382662476248  2.54931721262126 -1.33248377927793
 6 -12.28349839553955 -0.73909497169717 -1.74334951215122
 6 -12.41696802880288 -1.25068895409541 -3.12500060546055
 7 -7.21487773987399 -1.36812617421742 -0.21724484318432
 6 -8.31616683898390 -2.27671361086109 -0.56168397429743
 6 -7.84830249774978 -3.54281846474647 -0.47453588258826
 6 -6.53572909490949 -3.51928624412441 -0.05168766086609
 6 -6.19033381158116 -2.22281843634363  0.12553417481748
 6 -8.60332067676768 -4.85119793869387 -0.92222176917692
 6 -5.30804734243424 -4.34312029732973  0.16787528742874
 8 -5.09247060886089 -5.55109776337634  0.07471350615062
 6 -4.18937234723472 -3.33551648574857  0.52231312331233
 6 -3.41568593279328 -3.71665775037504  1.81867304700470
 8 -3.60296395099510 -3.17697092989299  2.87969168446845
 8 -2.63819516741674 -4.78877703020302  1.64672276027603
 6 -2.01575421392139 -5.18286875617562  2.81569290629063
 6  2.78521229782978 -0.72990224792479 -1.17760313521352
 6  4.04524784718472 -0.49669351875188 -0.45111764046405
 6  5.05285889328933  0.20922424692469 -0.86054595479548
 6  5.04316173277328  1.13247778407841 -2.05379247034703
 6  6.33969042664266  0.46631543844384 -0.15623230943094
 6  7.57986572547255 -0.22670455235524 -0.82042171087109
 6  8.92804188658866 -0.09470920442044 -0.07708030223022
 6  10.17434832783278 -0.55029212751275 -0.77003339773977
 6  10.10202738893889 -2.05202453735374 -1.20659232073207
 6  11.34816593369337 -0.20763165376538  0.02543274197420
 6  12.69674684368437 -0.64006052195220 -0.66752729252925
 6  13.96588227602760  0.03819705650565  0.14079129212921
 6  15.37257260126013 -0.13253586528653 -0.54500755105511
 6  15.78189229142914 -1.69992277807781 -0.85254253405341
 6  16.50411366536654  0.48029241534153  0.38801798649865
 6  17.83327903220322  0.58360648644865 -0.24484276417642
 6  18.82373777327733  1.26073792059206  0.72788515021502
 6  20.20032771257126  1.39284502910291  0.18904850845085
 6  20.40850107900790  2.11827747574757 -1.15494131553155
 6  21.21607948204820  1.98546291569157  1.17999470107011
 1 -4.04186444494449  3.63266164786479  1.33114763576358
 1 -10.02291604330433  3.73701128502850 -0.53834813741374
 1 -10.40320958275828 -2.44883493819382 -1.24990853835384
 1 -2.43121181188119 -0.97810747444744  2.00650788938894
 1 -2.16169580758076  1.64108259685969  1.44810917741774
 1 -1.93241696499650  0.89584507350735  3.71674188758876
 1 -2.96186097229723  2.05458491509151  3.52035660316032
 1 -3.51390237143714  0.72460682838284  3.97791167566757
 1 -2.13977650455045 -1.60633655405541 -0.33392837883788
 1 -2.30543474567457 -0.03730163886389 -0.53295839743974
 1 -0.20242733673367  0.49708763226323  1.04002625452545
 1 -0.31191714541454 -1.31104407980798  1.42712558845885
 1 -5.07717988568857  6.20275545064507  0.57952973517352
 1 -6.23145781608161  6.74878467726773  1.82546723592359
 1 -5.18304153295330  5.57170234163416  2.40294397309731
 1 -9.74814231313131  5.98660159625963  0.63161100560056
 1 -8.93616425682568  8.26901549104910  0.01059165246525
 1 -6.92328736533653  7.50185075427543 -0.16005047564756
 1 -11.89380479327933  3.47214451975198 -1.96375267366737
 1 -13.12634784828483  2.08461409950995 -1.94357788148815
 1 -12.61081804320432  3.10886397179718 -0.33804530253025
 1 -12.56447897599760 -1.62636503470347 -1.23452366026603
 1 -13.21099710331033 -0.07329114211421 -1.56450380738074
 1 -13.51153161936194 -1.88365960516052 -3.20483348104810
 1 -12.50446062006201 -0.40037876377638 -3.70845842084208
 1 -11.71922527012701 -2.10489343334333 -3.44941405690569
 1 -8.86072696859686 -4.75098794709471 -2.14001158255826
 1 -7.91826552755276 -5.65973608180818 -0.89662389048905
 1 -9.48484064986499 -5.02079886688669 -0.31254951115112
 1 -3.60319045104510 -3.58539012351235 -0.34802145514551
 1 -1.51432252225223 -4.36165454275427  3.34177086408641
 1 -2.87457264466447 -5.57961860426043  3.30181740384038
 1 -1.11135256175618 -5.78486266336634  2.56661336423642
 1  2.59808447954796 -1.92465215511551 -1.29738381468147
 1  2.61647334753475 -0.28462554415442 -2.14340636043604
 1  4.12514173847385 -1.09381738793879  0.34484686088609
 1  3.96174711101110  1.07346844314431 -2.42906624892489
 1  5.25886918531853  2.20685507570757 -1.90380473507351
 1  5.77046236903690  0.88226855705571 -2.68539983928393
 1  6.37834085738574  1.69455568326833 -0.01897439973997
 1  6.11464481248125  0.04429118021802  0.92298330543054
 1  7.27532127422742 -1.31740281198120 -0.97900202890289
 1  7.77781931293129  0.12589946644664 -1.87613776067607
 1  9.06886298349835  1.05443806030603  0.29137309980998
 1  8.86224404720472 -0.71546990239024  0.84744936353635
 1  10.24452616411641 -0.05992122582258 -1.77976180678068
 1  9.02923942034204 -2.33225026932693 -1.42952791399140
 1  10.79155223992399 -2.27732424502450 -1.93502968896890
 1  9.97434490809081 -2.90396201880188 -0.32715480618062
 1  11.25681044324432  0.83652806030603  0.24201616501650
 1  11.10335074477448 -0.52623496159616  0.99895736873687
 1  12.89806554225423 -1.79241610301030 -0.78831716661666
 1  12.66791569756976 -0.40901142214221 -1.84623298709871
 1  13.76542804600460  1.00756401190119  0.19149581008101
 1  14.05866195649565 -0.44749718701870  1.09590476017602
 1  15.52333472557256  0.42357221762176 -1.42275193469347
 1  15.70523252425243 -1.97573429932993  0.15767817021702
 1  14.94373190499050 -2.38109630323032 -1.30210793119312
 1  16.84052211081108 -2.01953588218822 -1.11762387118712
 1  16.30630584028403  1.44973404610461  0.85592901390139
 1  16.59044074607461 -0.28525492119212  1.22011494319432
 1  18.21832102400240 -0.47379434323432 -0.30377638523852
 1  18.18183826502650  1.09524078257826 -1.27827131103110
 1  18.46306498929893  2.36522842244224  0.68457355825582
 1  18.80192647004700  0.84979859115912  1.66330268186819
 1  20.59052911961196  0.39851628742874 -0.02828507810781
 1  20.13179001230123  3.12517150205020 -1.14914518401840
 1  21.33875998989899  2.16508238613861 -1.66343759775978
 1  19.85693652685268  1.69573097539754 -1.99467989128913
 1  21.15419543484348  1.17122642644264  1.87271671327133
 1  22.08728336883689  2.15589412061206  0.59322358855886
 1  20.93997653025303  2.98421209740974  1.46954288548855

