%nproc=4
%Mem=2GB
# td=(NStates=1) CAM-B3LYP/6-31G(d,p) 

TD

0 1
12 -7.14886655595560  0.53518175887589  0.14247229582958
 6 -4.86100498159816 -1.97409952125213  0.50878651355135
 6 -4.70726003230323  2.86984131143114  1.14274773197320
 6 -9.42351694049405  3.10960335973597 -0.38812014501450
 6 -9.52777380498050 -1.72047222222222 -0.91600971597160
 7 -5.13778656025603  0.39603086358636  0.85427294769477
 6 -4.26548415371537 -0.76412703310331  0.90491239403940
 6 -2.83451441264126 -0.35359063116312  1.29822526372637
 6 -3.02183247244725  1.07176830933093  1.69901270767077
 6 -4.36932501920192  1.52414279467947  1.16728298949895
 6 -2.82688047904790  1.22029851715172  3.14939846594659
 6 -1.90503478437844 -0.56657066716672  0.13226255205521
 6 -0.51465971997200 -0.37429566096610  0.51554013691369
 6  0.55357473587359 -0.51219465156516 -0.60895254705471
 8  0.29360991069107 -0.87761916571657 -1.74904418471847
 8  1.75217224222422 -0.32513742054205 -0.14525874597460
 7 -7.10652826132613  2.53546495379538  0.37465262206221
 6 -6.05992312331233  3.30290124402440  0.86259424342434
 6 -6.38217620732073  4.73018364876488  0.79711747624762
 6 -7.74976557195720  4.77490737743774  0.42629953695370
 6 -8.16841739493949  3.49589988128813  0.08522886208621
 6 -5.58784456565657  5.90276136743674  1.33589011421142
 6 -8.56731594399440  6.03184825282528  0.49852987488749
 6 -8.20748994679468  7.25667175147515  0.17204294199420
 7 -9.15844087978798  0.70919739803980 -0.52787449274927
 6 -9.93856551555155  1.74692537513751 -0.66061118531853
 6 -11.26977172007201  1.50729171957196 -1.19616436603660
 6 -11.21195971667167  0.10616449374937 -1.35552481868187
 6 -9.98482836653665 -0.39777826592659 -0.90552985588559
 6 -12.28848709080908  2.41937421832183 -1.56046657755776
 6 -12.37209725542554 -0.74936599879988 -1.83537871507151
 6 -12.26142247424742 -1.07024090929093 -3.37070517591759
 7 -7.22508876097610 -1.41324068566857 -0.10009312801280
 6 -8.26714193649365 -2.23799973947395 -0.54533233913391
 6 -7.86682434993499 -3.64103828672867 -0.53032146114611
 6 -6.54478000000000 -3.59249356485649 -0.12051454355436
 6 -6.18288306650665 -2.21291744624462  0.11899352075208
 6 -8.71159150385038 -4.77944076297630 -0.90163971097110
 6 -5.38363490119012 -4.36873285858586  0.25149364926493
 8 -5.15255661746175 -5.58753140674067  0.18741477627763
 6 -4.23194660466047 -3.33037597169717  0.64356524852485
 6 -3.66098046224622 -3.81387747234723  1.90905208490849
 8 -3.84870852545255 -3.17496072887289  2.98161187648765
 8 -2.90745209310931 -4.85565371787179  1.79195728372837
 6 -2.24039667816782 -5.38841931123112  2.95233657065707
 6  2.84793857045705 -0.56924618231823 -1.23404877977798
 6  4.18162148454846 -0.48340218961896 -0.58558108680868
 6  5.22366597399740  0.37933125762576 -0.89237913811381
 6  5.22358977557756  1.14406894319432 -2.19219631073107
 6  6.46119257685769  0.52534134103410 -0.14580126632663
 6  7.70257799669967 -0.15331721362136 -0.87659732843284
 6  8.93489257165717 -0.05489522302230 -0.02017461166117
 6  10.16029692269227 -0.66692379067907 -0.75466186058606
 6  10.01381856805681 -2.09313864876488 -1.04175583708371
 6  11.53787490459046 -0.40741163176318  0.00156035473547
 6  12.79591676067607 -0.46177269316932 -0.76033657345735
 6  13.96464215201520 -0.13438020122012  0.11100831383138
 6  15.34976032003200 -0.17852046374637 -0.55563861416142
 6  15.65633973617362 -1.56979976577658 -0.93608088788879
 6  16.48233148714871  0.19167355345535  0.39282846754675
 6  17.84093979827983  0.50249837563756 -0.28949722962296
 6  18.76220161966197  1.23702554935494  0.62326468816882
 6  20.22445012481248  1.40820656525653  0.03407301090109
 6  20.24807503640364  2.41135678367837 -1.13342916431643
 6  21.04625249934994  1.99448381778178  1.24409111071107
 1 -3.96477673617362  3.52169055075508  1.64598911991199
 1 -10.17230098179818  3.91617920182018 -0.75195949854986
 1 -10.10002926472647 -2.35673572827283 -1.27656120362036
 1 -2.37502619331933 -0.95475513921392  2.09150638923892
 1 -2.19717935593559  1.77474596319632  1.07450181668167
 1 -1.71287501080108  1.28129361836184  3.51788200160016
 1 -2.85240002620262  2.30592004860486  3.47701226872687
 1 -3.41073205440544  0.53262763046305  3.65037892239224
 1 -1.94456698359836 -1.50347626802680 -0.04616960296030
 1 -2.37458166036604  0.14045613691369 -0.68696379797980
 1 -0.44426152015201  0.78913683718372  0.81772402430243
 1 -0.17043299699970 -0.81351432683268  1.51313418931893
 1 -5.12590475817582  6.52206738183818  0.58872065426543
 1 -6.42354702500250  6.55946574537454  1.69915460466047
 1 -5.00079330813081  5.60128529992999  2.23343702240224
 1 -9.67208470737074  6.14105704180418  0.93153099759976
 1 -8.73826446684668  8.18473706320632 -0.02825223192319
 1 -7.14678971557156  7.51675224442444 -0.01373584418442
 1 -11.93785919871987  3.11831913721372 -2.34099039743974
 1 -13.29693490699070  2.07803344144415 -2.01161468516852
 1 -12.66552351375138  2.79883296869687 -0.53988548654866
 1 -12.12334486258626 -1.76777917611761 -1.24652486038604
 1 -13.36897290089009 -0.37933174617462 -1.65160251725173
 1 -13.09819028522852 -1.63932517171717 -3.80543354105411
 1 -12.25882605660566 -0.03602232813281 -4.07120469546955
 1 -11.34355770337034 -1.63590653465347 -3.57249636513651
 1 -8.80168106400640 -4.67108995729573 -2.00160774217422
 1 -8.35476917791779 -5.80177028522852 -0.69792402050205
 1 -9.65143730953095 -4.77867465446545 -0.56618487468747
 1 -3.32048218021802 -3.42587417191719 -0.19465611861186
 1 -1.78027911791179 -4.54257263456346  3.56583327032703
 1 -2.92052724012401 -6.10013065546555  3.53704092619262
 1 -1.49009043554355 -5.94754893199320  2.52585928882888
 1  2.72812748384838 -1.56405609550955 -1.48329240554055
 1  2.51648334853485  0.12937585598560 -2.11480350015002
 1  4.34370359465947 -1.02185019121912  0.32537491369137
 1  4.41611254755476  1.36310740704070 -2.75218856115612
 1  5.64273757215722  2.10912530273027 -1.86669102370237
 1  6.10733605640564  0.91535186538654 -2.85873717301730
 1  6.53608663196320  1.51041726942694  0.08184568226823
 1  6.38519186718672  0.06871362246225  0.96362736983698
 1  7.53538728082808 -1.21225229692969 -1.42707683638364
 1  7.90057158815882  0.28407528402840 -1.82583273017302
 1  9.35678177537754  0.98633124962496  0.09762372487249
 1  8.88802662546255 -0.53544189958996  0.93403802240224
 1  10.30794250575058 -0.22002723642364 -1.68547237783778
 1  9.14832132853285 -2.09206625092509 -1.66834179537954
 1  10.79179226392639 -2.54239075167517 -1.63645983198320
 1  9.98551602520252 -2.51285290789079 -0.06734882558256
 1  11.41233599579958  0.62963737123712  0.39074103750375
 1  11.41293170287029 -1.04190652875288  0.89850732373237
 1  12.93082881858186 -1.40998786018602 -1.20553888878888
 1  12.91634054005401  0.29183866286629 -1.56360472427243
 1  13.84676617981798  0.91691494699470  0.50145680618062
 1  14.17760385068507 -0.67559999729973  1.12298746844684
 1  15.34760715281528  0.45249510991099 -1.35936559605961
 1  15.49711171217122 -2.30761748764876  0.04154655705571
 1  15.00581811361136 -2.06409460306031 -1.64542226262626
 1  16.75504356295630 -1.65695962456246 -1.28499060786079
 1  16.38326353605360  1.06179525222522  1.15924934593459
 1  16.57701940394039 -0.61188758445845  1.14116704840484
 1  18.29229842174217 -0.42449941374137 -0.65573158075808
 1  17.59867994919492  1.10453171167117 -1.05753923782378
 1  18.31347002980298  2.19784168376838  0.73899900080008
 1  18.99970624802480  0.76162977427743  1.59630598219822
 1  20.52689275597560  0.37335377117712 -0.17388963856386
 1  19.73351018431843  3.35110409530953 -0.84061433093309
 1  21.22121823572357  2.57011288918892 -1.44956621062106
 1  19.75589642284228  1.95233663596360 -2.07789821312131
 1  20.99550956625663  1.03697300110011  1.90094953655366
 1  22.13363800430043  2.19662819401940  0.91380564676468
 1  20.68004053665367  2.98662233843384  1.64809074027403

