%nproc=4
%Mem=2GB
# td=(NStates=1) CAM-B3LYP/6-31G(d,p) 

TD

0 1
12 -7.16180785008501  0.56859510021002  0.15399344794479
 6 -4.88485736683668 -1.96352846414641  0.59998563346335
 6 -4.84394370067007  2.79293362066207  1.20236369356936
 6 -9.34172876167617  3.12454485388539 -0.41220255325533
 6 -9.48748977657766 -1.75529570457046 -0.88114622962296
 7 -5.09115189678968  0.44093535403540  0.74741226162616
 6 -4.36632423772377 -0.78517913831383  0.91833373617362
 6 -2.94014497569757 -0.44950022212221  1.29099454065407
 6 -3.06792708190819  1.00879201170117  1.74718752515252
 6 -4.37757584428443  1.49363974437444  1.26979324052405
 6 -2.97857564856486  1.22010849814982  3.28258178427843
 6 -1.98447272817282 -0.63660767086709  0.20396972277228
 6 -0.56119437343734 -0.51325955735574  0.62284086698670
 6  0.47151653005301 -0.69662309440944 -0.55377702950295
 8  0.30113066276628 -1.11718312211221 -1.64962424272427
 8  1.78394541954195 -0.36971187798780 -0.21924614471447
 7 -6.98806641514151  2.61383279057906  0.28701385818582
 6 -5.99862699369937  3.40319127302730  0.84015199919992
 6 -6.36684467416742  4.72967359775978  0.85246301080108
 6 -7.61626222162216  4.82359224592459  0.34352125912591
 6 -8.03075362856286  3.45909620092009  0.09617995719572
 6 -5.53268905010501  5.85238632993299  1.41908843404340
 6 -8.47325653805381  6.01112618061806  0.32703272517252
 6 -8.09957915571557  7.29935601990199  0.19536527422742
 7 -9.04429946564656  0.70460693899390 -0.61213291859186
 6 -9.77731939093909  1.80689137173717 -0.69428455265527
 6 -11.07354209710971  1.50563155355536 -1.20136488608861
 6 -11.12225074577458  0.13374725202520 -1.21503076927693
 6 -9.82647253095310 -0.39349783788379 -0.89766906980698
 6 -12.23460170227023  2.44035631653165 -1.49075960686069
 6 -12.37691773747375 -0.69921098329833 -1.77882305950595
 6 -12.16791312331233 -1.12736662186219 -3.22520062546255
 7 -7.18916516861686 -1.44823418501850 -0.06533965266527
 6 -8.23964918721872 -2.30414635413541 -0.61333913981398
 6 -7.78185585308531 -3.59295347824782 -0.64002243124312
 6 -6.50323584558456 -3.58743305880588 -0.19094158625863
 6 -6.15397017521752 -2.26022217671767  0.16501812321232
 6 -8.62661300600060 -4.77924074297430 -0.98221776877688
 6 -5.32559909760976 -4.42191817711771  0.21723022292229
 8 -5.16023738553855 -5.61407406100610  0.17422345714571
 6 -4.25745915591559 -3.37282021612161  0.57050794279428
 6 -3.57539190339034 -3.77366345094509  1.87087826752675
 8 -3.95549920452045 -3.20780401320132  3.02526624192419
 8 -2.67738908680868 -4.68587674017402  1.84536262426243
 6 -2.20091272977298 -5.30806127542754  3.14942627962796
 6  2.80976475307531 -0.65940519821982 -1.24164953985399
 6  4.10945426782678 -0.32290614001400 -0.52183471217122
 6  5.05241884928493  0.45104842934293 -1.07018691889189
 6  5.01264868146815  1.26716125242524 -2.33187027812781
 6  6.30643710131013  0.59425823272327 -0.27470415661566
 6  7.56440417931793 -0.07412929482948 -0.97682735143514
 6  8.95976505890589  0.03507377387739 -0.26194878907891
 6  10.13926481948195 -0.53197029532953 -1.00649704410441
 6  9.99640682688269 -1.97505684058406 -1.57228889038904
 6  11.37619873697370 -0.35437632823282 -0.03339314061406
 6  12.71018818781878 -0.57329384528453 -0.73014355415542
 6  13.93501918971897  0.01534477127713  0.17161437443744
 6  15.28814415841584 -0.19722233393339 -0.51679472977298
 6  15.56675077727773 -1.64871765756576 -0.87126440624062
 6  16.39025227922792  0.40327471357136  0.32921210591059
 6  17.76640234453446  0.68467659345935 -0.24879315921592
 6  18.66855225472547  1.35195704250425  0.74599696139614
 6  20.12651033083309  1.30526627122712  0.32335193879388
 6  20.46399662856285  2.06341198919892 -1.03758958035804
 6  21.12646052015202  1.88432280168017  1.41319802140214
 1 -4.03228348684868  3.56087446914691  1.68246276727673
 1 -10.06212996469647  4.04377196109611 -0.77400170277028
 1 -10.30057931973197 -2.43132318701870 -1.18489203670367
 1 -2.67653634433443 -1.17974763846385  1.93658089668967
 1 -2.23064270227023  1.60120860946095  1.39035340184018
 1 -2.04539826312631  0.88953444244424  3.72984319771977
 1 -3.09688447464746  2.32978243484348  3.65577014451445
 1 -3.68312929412941  0.59650401810181  3.90332421692169
 1 -2.06617914481448 -1.57737365776578 -0.26677166316632
 1 -2.02558676087609  0.18051014231423 -0.60953605520552
 1 -0.41189828382838  0.56004392789279  0.88996124802480
 1 -0.11874782848285 -1.30174314971497  1.33735661156116
 1 -4.79584175187519  6.26026120122012  0.68083986618662
 1 -6.06482115241524  6.59774957375738  1.76060074927493
 1 -4.98727195599560  5.68803397479748  2.25047872657266
 1 -9.65016251515151  5.84125706180618  0.44567241174117
 1 -8.78243888428843  8.07075566506651  0.26761735503550
 1 -7.13988902550255  7.69684025322532  0.10011554095410
 1 -12.00089550235024  3.36386369166917 -2.35054135253525
 1 -12.87932314581458  1.95201083918392 -1.83226675037504
 1 -12.44820178157816  3.11073415881588 -0.53533503150315
 1 -12.55626815491549 -1.63803620182018 -1.14952516041604
 1 -13.27934393799380 -0.22016582958296 -1.74811216821682
 1 -13.07754822102210 -1.60523176237624 -3.56241923962396
 1 -12.08943911791179 -0.22390111601160 -3.78576615161516
 1 -11.32336568416842 -1.63956690069007 -3.42548166366637
 1 -8.82436333223322 -4.84383723202320 -2.09883746514651
 1 -8.20979468046805 -5.75557566576658 -0.86413064116412
 1 -9.51745391119112 -4.93025981298130 -0.27175543174317
 1 -3.29857998999900 -3.51647323182318 -0.11052770577058
 1 -1.56420751075107 -4.68985736303630  3.63227991499150
 1 -3.32175736313631 -5.46108675107511  3.74489171127113
 1 -1.90854228072807 -6.21295547264727  2.79930663356336
 1  2.54702937403740 -1.78926861676168 -1.35279935623562
 1  2.67845954615462 -0.01512859445945 -2.10042206200620
 1  4.33532275657566 -0.72567057325733  0.46979935613561
 1  4.13223415971597  1.13126422272227 -2.70754409670967
 1  5.13039633803380  2.13429781998200 -2.15999035363536
 1  5.60228555135514  0.83672400260026 -3.19794109340934
 1  6.43398642194219  1.64540076777678 -0.01654415671567
 1  6.29284263226323  0.13761051215121  0.74106511361136
 1  7.38848259035904 -1.23259433113311 -1.36183031173117
 1  7.76242777377738  0.40603748024802 -1.94933508040804
 1  9.16393249044904  1.12377499399940  0.08288225072507
 1  8.85224304710471 -0.42224057945795  0.70812543114311
 1  10.05640735223522  0.12288705500550 -1.78779260986099
 1  9.28848534493449 -2.07981502580258 -2.25880084128413
 1  10.93258634333433 -2.21396790939094 -2.18043422942294
 1  10.00538801240124 -2.83866548914892 -0.61785387608761
 1  11.36302106430643  0.67132153965397  0.48624058745875
 1  11.21122153185318 -1.05815815391539  0.70905837883788
 1  13.02355809150915 -1.70150701210121 -0.80247858275828
 1  12.80998990499050 -0.15071559255926 -1.72046040984098
 1  13.85922742594259  1.06787004250425  0.27632429292929
 1  13.90945703600360 -0.35585802310231  1.35405057475748
 1  15.17633002510251  0.36426628702870 -1.48616827632763
 1  15.69814181518152 -2.21524825072507 -0.01780937853785
 1  14.80775830763076 -2.24122231583158 -1.57568528892889
 1  16.53019107770777 -1.75611954055406 -1.45107721652165
 1  15.91656686638664  1.36938601130113  0.84681810281028
 1  16.33538524052405 -0.28972536823682  1.12570550225023
 1  18.33324251615162 -0.22888985278528 -0.46943295089509
 1  17.72062214341434  1.30027128562856 -1.08556204010401
 1  18.39292797559756  2.41496339593959  0.77857295819582
 1  18.43045932333233  0.95475908720872  1.84654100570057
 1  20.55743581028103  0.31783821962196  0.18636638703870
 1  20.22483931723172  3.18034701960196 -0.97695796529653
 1  21.45112122602260  1.87604348224822 -1.39977123112311
 1  19.82360319351935  1.74904630693069 -1.92478290159016
 1  20.75148516381638  1.23414271807181  2.45562500410041
 1  22.26126076657666  1.70173870507051  1.17632189838984
 1  20.87320985358536  3.00283395959596  1.37309324052405

