%nproc=4
%Mem=2GB
# td=(NStates=1) CAM-B3LYP/6-31G(d,p) 

TD

0 1
12 -7.22416408570857  0.52107034773477  0.13639168776878
 6 -4.83868274937494 -1.87989010031003  0.48240387528753
 6 -4.90273958025803  2.90053438073807  1.19595305250525
 6 -9.47603219201920  3.01237363676368 -0.29218055105511
 6 -9.52366339393939 -1.82555273027303 -0.82797091209121
 7 -5.15535831743174  0.43444470497050  0.69478699909991
 6 -4.34983258855886 -0.68075869626963  0.84282618541854
 6 -2.90937189838984 -0.37278255035504  1.24638007920792
 6 -3.05789607880788  1.12762389488949  1.72143494989499
 6 -4.37947603430343  1.55167554795480  1.18327458865887
 6 -3.03712150315032  1.22033852115212  3.28892241834183
 6 -1.84157843874387 -0.45745975607561  0.05095442124212
 6 -0.48710696469647 -0.23536176757676  0.49732831573157
 6  0.61654103250325 -0.63851728382838 -0.60939259105911
 8  0.39326987668767 -1.08883028682868 -1.73370265056506
 8  1.83277030203020 -0.36010091689169 -0.09091331143114
 7 -7.14975258375838  2.61834324162416  0.33400855765577
 6 -6.09070620162016  3.37733868776878  0.74222220622062
 6 -6.45835382508251  4.83955458585859  0.86263402790279
 6 -7.81886248164817  4.80755064176418  0.45716262326233
 6 -8.25549610281028  3.40991128242824  0.11063140234023
 6 -5.50432621382138  5.93814490579058  1.24020054525453
 6 -8.74160337273728  5.90408547654765  0.37099712161216
 6 -8.36546574437444  7.20591667596760  0.00621635933593
 7 -9.25682071777178  0.59048552685269 -0.42504420972097
 6 -9.91082274127413  1.77635831843184 -0.60441556575658
 6 -11.22057680058006  1.46286727712771 -1.08762351195119
 6 -11.30568908960896  0.08080195749575 -1.21229049524953
 6 -10.06375625932593 -0.43210169826983 -0.77107641054105
 6 -12.42099034113411  2.37079936083608 -1.23630416131613
 6 -12.39763980968097 -0.82549361156116 -1.78758393559356
 6 -12.20395672767277 -1.24809869506951 -3.24847295269527
 7 -7.25937218931893 -1.35946530813081 -0.11326444514451
 6 -8.30875609790979 -2.33799973947395 -0.50115792169217
 6 -7.85715338283828 -3.65433961686169 -0.45573400240024
 6 -6.55908143014301 -3.55994030953095 -0.14744723682368
 6 -6.21056583478348 -2.16033218771877  0.13374499589959
 6 -8.63840418511851 -4.88968178707871 -0.72112165916592
 6 -5.30228676637664 -4.31418740404040  0.11711021092109
 8 -5.09961132293229 -5.57625027862786  0.12370840564056
 6 -4.16404981498150 -3.18179111321132  0.45193608560856
 6 -3.48258262246225 -3.62600868546855  1.66433761346135
 8 -3.73760741534153 -3.09816304910491  2.79685340064006
 8 -2.60053140104010 -4.67282543504350  1.47936602460246
 6 -2.00757339583958 -5.23593406270627  2.63308464546455
 6  2.93598737533753 -0.50268952665267 -1.16250162506251
 6  4.25321864426443 -0.21451530093009 -0.42547507620762
 6  5.25288889628963  0.46860018451845 -0.84084398459846
 6  5.19056647324732  1.28933346964696 -2.10916800790079
 6  6.48453491109111  0.62084089098910 -0.04548123432343
 6  7.62908064696470 -0.00782266416642 -0.81436110481048
 6  8.86597567996800 -0.06857659115912 -0.08651124532453
 6  10.17193808680868 -0.48132523082308 -0.76173256765677
 6  10.02272945914591 -2.00506984188419 -1.17022868436844
 6  11.49861097819782 -0.29506039663966  0.03684388308831
 6  12.75440260926093 -0.57179369526953 -0.65006554635464
 6  14.01182687048705 -0.07364412761276  0.25928314131413
 6  15.33972931693169 -0.23162577427743 -0.40381343164316
 6  15.65277938013801 -1.69492227802780 -0.91293857365737
 6  16.54297755175518  0.15666005210521  0.56820600530053
 6  17.77190289458946  0.48525665146515 -0.22505078497850
 6  18.87482288178818  1.17096894369437  0.73201556325633
 6  20.24048172797280  1.18728447304730  0.18861846544654
 6  20.24041427032703  1.89562521052105 -1.31679750115011
 6  21.25424329842985  1.91880625002500  1.07299400100010
 1 -4.35960621912191  3.71060944264426  1.61330585158516
 1 -10.31071482318232  3.86436402030203 -0.37927222982298
 1 -10.17603686548655 -2.52629268396840 -1.38168171567157
 1 -2.59779847054705 -1.06294595829583  2.04206144474447
 1 -2.22450208820882  1.63937242584258  1.18058242474247
 1 -2.06580030333033  1.20784627362736  3.60206041944194
 1 -3.39636442264226  2.17606706330633  3.47355192269227
 1 -3.67720870207021  0.48439280698070  3.61739562406241
 1 -1.84557708460846 -1.40060598099810 -0.35263024902490
 1 -2.05449965216522  0.14079617091709 -0.93632873447345
 1 -0.50284737873787  0.73620154365437  0.71783403530353
 1 -0.28842479617962 -0.82898587398740  1.32412528842884
 1 -5.17252942064206  6.18685386048605  0.15937771997200
 1 -5.89295396569657  6.84542434123412  1.67781247044704
 1 -4.37950117891789  5.67320249164916  1.69596327502750
 1 -9.85229272817282  5.55727866396640  0.59135698019802
 1 -9.12140278067807  7.90724931443144  0.06343693699370
 1 -7.46817185378538  7.49733030223022 -0.45008947954795
 1 -12.06864227702770  3.07362466776678 -2.04914121252125
 1 -13.51221643514351  1.89641527962796 -1.49247277097710
 1 -12.60407736913692  3.01825491089109 -0.24404590259026
 1 -12.40694322242224 -1.99677207540754 -1.25367557545755
 1 -13.12731873547355 -0.32791660466047 -1.86442379937994
 1 -13.08829929612961 -1.83200443964396 -3.62658565626563
 1 -11.92897307130713 -0.38671739763976 -4.04732230723072
 1 -11.35345869346935 -1.94696764076408 -3.62653176867687
 1 -9.16273716961696 -4.99467231553155 -1.72919050045004
 1 -7.89379308030803 -5.69060916911691 -0.77273150125012
 1 -9.52750491629163 -5.10104689168917  0.05290703450345
 1 -3.43424355635564 -3.36731831633163 -0.44246089908991
 1 -1.22818390839084 -4.33027140444044  2.99960664766477
 1 -2.82445763316332 -5.06787743014301  3.58626584868487
 1 -1.51064249074907 -6.17169134623462  2.18904560746075
 1  2.85840051115112 -1.50105979587959 -1.41563563986399
 1  2.65964766496650  0.15359827822782 -2.08003002280228
 1  4.24235345964596 -0.92418042424242  0.30848322452245
 1  4.28017895419542  1.05726682298230 -2.76446978927893
 1  5.26438973737374  2.36869125932593 -1.73927828242824
 1  6.10647597039704  1.01437176737674 -2.83664496379638
 1  6.80044306760676  1.59774600230023  0.14849234693469
 1  6.23669701770177  0.03724047514751  0.81700270737074
 1  7.55224896699670 -1.10874194589459 -0.91932606130613
 1  7.42564409540954  0.32652952945295 -1.85991613851385
 1  9.24229032623262  0.80486310281028  0.10405436793679
 1  8.74029185198520 -0.54272262766277  0.86690130873087
 1  10.41243295479548  0.23677844414441 -1.65321915251525
 1  9.13690018641864 -2.10960800510051 -1.86301126232623
 1  10.64772785748575 -2.62050856345635 -1.85525171117112
 1  9.83245071867187 -2.69136075867587 -0.27229932063206
 1  11.34396915911591  0.77741214871487  0.32922488588859
 1  11.21393180288029 -0.84007634573457  0.91700917391739
 1  12.83631936763676 -1.63749061046105 -0.89397773267327
 1  12.77734664066407 -0.14161468246825 -1.62947131093109
 1  13.85315681888189  0.95902915841584  0.56108276877688
 1  13.86814290459046 -0.85344778207821  1.07461263096310
 1  15.22231462356236  0.55036489688969 -1.24063372287229
 1  15.55588758975898 -2.43464018991899 -0.00816841444144
 1  14.91515904770477 -2.04300249384939 -1.65901362176218
 1  16.60201826042604 -1.78846277487749 -1.61297340614061
 1  16.17026223592359  1.12142121482148  1.12673609460946
 1  16.86060776277628 -0.58475487118712  1.31767469916992
 1  18.19231842374237 -0.41084804860486 -0.35309131673167
 1  17.55396547774778  1.09916117461746 -0.97305078897890
 1  18.57740642344234  2.31251315091509  0.85430053095310
 1  18.87826410381038  0.62727633893389  1.67626397799780
 1  20.79143921062106  0.29376581238124 -0.12137438703870
 1  19.85666249954996  2.95588457335734 -1.14435470497050
 1  21.29279539343935  2.04499037693769 -1.44825607960796
 1  19.69457029022902  1.21791319361936 -2.01072149544954
 1  21.34853486878688  1.42419172297230  2.00644008560856
 1  22.39221386188619  2.18011654285429  0.76237050325032
 1  20.90037256985699  2.93042671887189  1.15353128432843

