%nproc=4
%Mem=2GB
# td=(NStates=1) CAM-B3LYP/6-31G(d,p) 

TD

0 1
12 -7.11864353365337  0.54139237993799  0.12966101470147
 6 -4.80583946504650 -1.93969608090809  0.63120875577558
 6 -4.86231553785379  2.84582891019102  1.26616007320732
 6 -9.47912250105010  3.04435683508351 -0.27517885088509
 6 -9.38324935253525 -1.73794396939694 -1.05974408940894
 7 -5.08036081768177  0.44459572007201  0.87729524992499
 6 -4.39636724202420 -0.68300892129213  1.03290519331933
 6 -2.98411937313731 -0.38841411351135  1.39914535573557
 6 -3.06815710491049  1.07203833633363  1.82280508690869
 6 -4.42829091579158  1.52820320072007  1.31929819101910
 6 -2.92016980798080  1.11703819111911  3.37503102920292
 6 -1.96980126102610 -0.51412542264226  0.17958728452845
 6 -0.58158641264126 -0.28741697309731  0.61440002290229
 6  0.43478285668567 -0.54512794489449 -0.56496814861486
 8  0.19489003870387 -0.83194459825983 -1.69723900420042
 8  1.75547257225723 -0.30144505130513 -0.23072729282928
 7 -7.17795540404040  2.62542394969497  0.46796195299530
 6 -6.17424455545555  3.37287824172417  0.85104308830883
 6 -6.44624261396140  4.74532516291629  0.77591535603560
 6 -7.82565316071607  4.78364825152515  0.38137504450445
 6 -8.14539509270927  3.49442973427343  0.13963430263026
 6 -5.52751853305331  5.89976106740674  1.22228875407541
 6 -8.68634784718472  6.00218528652865  0.16625664756476
 6 -8.31236043384338  7.30535661996200  0.01552729042904
 7 -9.14885992169217  0.60680715901590 -0.51279298459846
 6 -9.92712437143714  1.79425010761076 -0.66251137533753
 6 -11.26920166306631  1.44055504590459 -1.21027577717772
 6 -11.23566208690869  0.06121999929993 -1.25976524272427
 6 -9.84210409410941 -0.46223471157116 -0.99883918681868
 6 -12.35330357245725  2.37952023292329 -1.48425895679568
 6 -12.37767781348135 -0.87016807900790 -1.76870204740474
 6 -12.21217754975498 -1.27190107530753 -3.30727883328333
 7 -7.20379663176318 -1.44527388898890 -0.22643576227623
 6 -8.18011323362336 -2.28628456795680 -0.56556436233623
 6 -7.76812447994799 -3.59039322222222 -0.53914234323432
 6 -6.45948147014701 -3.49584389988999 -0.11756424852485
 6 -6.10293507170717 -2.15284143864386  0.14130575197520
 6 -8.61684202890289 -4.80314313321332 -0.87979752675268
 6 -5.24766130383038 -4.45494147944795  0.21026952685269
 8 -5.04829619141914 -5.55222787638764  0.15537157195720
 6 -4.16540995099510 -3.33537647174717  0.68472936493649
 6 -3.51089545374537 -3.71146723132313  1.95966714641464
 8 -3.79707336193619 -3.31227446024602  3.03295701100110
 8 -2.60569191709171 -4.67094524702470  1.66500458845885
 6 -2.10805344384438 -5.23275374467447  2.90891222822282
 6  2.66090986758676 -0.55188444614461 -1.27371274617462
 6  4.03879720212021 -0.17443129252925 -0.63324585328533
 6  5.12448605600560  0.50014333883388 -1.03003290349035
 6  5.04812222882288  1.19238377467747 -2.38883597469747
 6  6.32087854545455  0.60521932883288 -0.25290197639764
 6  7.57250498939894 -0.05849773167317 -0.85892556125613
 6  8.90988007040704 -0.04618435193519 -0.10787338153815
 6  10.14474536753675 -0.38145524382438 -0.91344773917392
 6  10.12369955615562 -1.94843417831783 -1.35640730223022
 6  11.40183130023002 -0.20651154175418 -0.06753655495550
 6  12.74111128012801 -0.32328884478448 -0.76985752555255
 6  13.89584527232723 -0.17382414561456  0.05457267026703
 6  15.37421276527653 -0.16600921262126 -0.54579763006301
 6  15.56024012621262 -1.64769755555556 -1.00309758955896
 6  16.42117537153715  0.22790717681768  0.39728891359136
 6  17.87424312861286  0.41455958175818 -0.25430371027103
 6  18.94526992649265  1.07946979377938  0.75035739743974
 6  20.29817749754976  1.19776552115212  0.28437804140414
 6  20.58179840874087  1.99187483548355 -0.93166898829883
 6  21.23635150925093  1.70806517591759  1.37419412101210
 1 -4.17997825632563  3.47141552325233  1.95846036703670
 1 -10.10130388208821  3.82602018591859 -0.29998430103010
 1 -10.22607186898690 -2.46729678437844 -1.35747929542954
 1 -2.65514420512051 -0.96127579127913  2.19860709930993
 1 -2.40074971297130  1.61260974957496  1.25395976247625
 1 -1.93353707700770  0.87199268826883  3.72014222762276
 1 -3.13767855405541  2.25870532713271  3.88342290979098
 1 -3.43268424962496  0.48535290299030  3.86320020452045
 1 -1.88590111701170 -1.61769769016902 -0.08754374037404
 1 -2.20636483868387  0.10400249154916 -0.65571067266727
 1 -0.37942503650365  0.67456538003800  0.91731398329833
 1 -0.29591554525453 -0.86323929932993  1.52137501340134
 1 -4.84393656135614  6.34569974507451  0.57361914411441
 1 -6.24755942624262  6.68803860266027  1.53958864806481
 1 -4.86831005980598  5.57558272967297  1.85355903460346
 1 -9.72951044994499  5.73512644874487  0.11390923542354
 1 -9.20933157355736  8.02478106760676 -0.11061046774678
 1 -7.37872290889089  7.54996556575658  0.15671120052005
 1 -12.03576898969897  3.33399070437044 -2.16120241864186
 1 -13.04042925642564  1.87498313641364 -2.18567209090909
 1 -12.71789875127513  2.78541162656266 -0.35651714971497
 1 -12.17362989108911 -1.67722012021202 -1.28109831773177
 1 -13.44621062466247 -0.52963677667767 -1.53053041004100
 1 -12.97914838103810 -2.00682192139214 -3.59630262796280
 1 -12.31388156215622 -0.33226195209521 -4.04015159015902
 1 -11.17656100370037 -1.60238318231823 -3.47567668316832
 1 -9.13176407230723 -4.80487333563356 -1.76881446284628
 1 -8.03526722772277 -5.56527663586359 -0.86500072817282
 1 -9.38877104290429 -4.78429521652165 -0.11655991219122
 1 -3.23012314431443 -3.36803838833883 -0.14306095909591
 1 -1.72782387238724 -4.55408378567857  3.87894458145815
 1 -2.91307649504951 -5.89788043044304  3.33135035713571
 1 -1.40454188068807 -5.91181535863586  2.56398310121012
 1  2.41769644074407 -1.62290198009801 -1.51447552385238
 1  2.40073177337734 -0.03134021562156 -2.20067208700870
 1  4.30328955325533 -0.77380538673867  0.26447882408241
 1  4.13544448074807  1.11179227552755 -3.00353369566957
 1  5.27976127452745  2.37590198039804 -2.33984833943394
 1  5.73887921072107  0.84651498169817 -3.20278157745775
 1  6.42827585088509  1.81009723742374 -0.14689719201920
 1  6.18719206720672  0.14440119121912  0.72971397849785
 1  7.36182992509251 -1.19436050775078 -1.29313344204420
 1  7.54959649064907  0.47161403790379 -1.83829397629763
 1  9.05789188638864  0.96075869236924  0.31717568006801
 1  9.04227205000500 -0.81612996839684  0.63786840544054
 1  10.40302201370137  0.38252301860186 -1.75370920152015
 1  9.22881937833784 -2.07254429872987 -2.07146210741074
 1  11.09331241594159 -2.02040855345535 -1.99793597959796
 1  10.13482095569557 -2.40932255485549 -0.44381647234724
 1  11.19737449964996  0.88859326682668  0.16392835623562
 1  11.55320573027303 -0.83807614571457  0.78578605160516
 1  12.79954569026903 -1.40934779617962 -1.26387472237224
 1  12.78518742474247  0.31529100810081 -1.68732709650965
 1  13.96739824302430  0.89557281278128  0.67007366786679
 1  13.98568465876588 -0.81598403570357  0.90964613431343
 1  15.33407579967997  0.40865072547255 -1.35637529702970
 1  15.64883688468847 -2.38921564746475 -0.07734533213321
 1  14.78200573237324 -2.20592878647865 -1.82690041044104
 1  16.37496555515552 -1.68723265186519 -1.68547065586559
 1  16.22781799149915  1.23920299299930  0.87436085708571
 1  16.41466316831683 -0.35891228692869  1.21152408410841
 1  18.19717890979098 -0.56732369616962 -0.47354336193619
 1  17.74027410861086  0.92481373987399 -1.35501898579858
 1  18.51362004480448  2.08822072167217  1.16584168506851
 1  19.11351762916291  0.71303491479148  1.95843219481948
 1  20.77941800850085  0.26992342814281  0.00296804720472
 1  20.13139997329733  3.04900388528853 -0.73469373887389
 1  21.64259037293730  1.91330720862086 -1.25906716071607
 1  20.19458029122912  1.54200560286029 -1.77381780508051
 1  21.11300131543154  1.02220152395239  2.22280172177218
 1  22.36785142564256  1.46928545974597  1.05352961916192
 1  21.00571310391039  2.68679235543554  1.75809174037404

