%nproc=4
%Mem=2GB
# td=(NStates=1) CAM-B3LYP/6-31G(d,p) 

TD

0 1
12 -7.10714238353835  0.57433567426743  0.16568461706171
 6 -4.86733561466147 -1.95513762506251  0.37913354825483
 6 -4.79653896019602  2.81891621892189  1.16792024922492
 6 -9.48928351715171  3.13231563096310 -0.38356968996900
 6 -9.48519954755476 -1.78494866986699 -0.82281039603960
 7 -5.01160394199420  0.48504976547655  0.67685520592059
 6 -4.34715232053205 -0.70199081948195  0.75085698849885
 6 -2.90738169936994 -0.41333660576058  1.17764320552055
 6 -3.01902219141914  1.08023915641564  1.65802860926093
 6 -4.37315540224022  1.52239261966197  1.22860912211221
 6 -2.87553534453445  1.25970245754575  3.17111063716372
 6 -1.93503778467847 -0.52905691579158  0.04486381218122
 6 -0.45668392239224 -0.42675090649065  0.48829741264126
 6  0.44965434383438 -0.68106153825383 -0.75247689948995
 8  0.11653220292029 -1.00464186798680 -1.89038831913191
 8  1.73076010101010 -0.32786769356936 -0.41418563866387
 7 -7.14281188968897  2.61668307560756  0.37913307010701
 6 -6.06838396939694  3.36832778667867  0.79978796279628
 6 -6.46490448014802  4.74754538493849  1.07894565906591
 6 -7.77306790219022  4.84996488318832  0.43220012701270
 6 -8.13743429662966  3.54274456575658  0.08669900910091
 6 -5.60642642384238  5.86670776207621  1.51075760096010
 6 -8.63201241364137  6.07310237823782  0.31998202010201
 6 -8.31878107590759  7.29689577387739  0.17479321702170
 7 -9.14005904160416  0.69991646994699 -0.40090179547955
 6 -9.93183484248425  1.80090077267727 -0.58923404760476
 6 -11.16773151605161  1.54857584798480 -1.10981573117312
 6 -11.28980750145015  0.16184006130613 -1.19185845204520
 6 -9.91245112881288 -0.39129761786179 -0.79051835473547
 6 -12.35260350245025  2.48039031993199 -1.38462899379938
 6 -12.41840188588859 -0.80597165936594 -1.74173935113511
 6 -12.16012234423442 -1.28170205540554 -3.17434553995400
 7 -7.21410766286629 -1.39908927052705 -0.17476059475948
 6 -8.27791301360136 -2.23255919541954 -0.53540134603460
 6 -7.81861952945295 -3.61509569246925 -0.55916434543454
 6 -6.43008853085309 -3.58824313981398 -0.14599709180918
 6 -6.14197897609761 -2.28022417691769  0.09122074347435
 6 -8.59581992669267 -4.91695451435143 -0.90998054505451
 6 -5.29643618131813 -4.33442942824282  0.23111161106111
 8 -5.07982934473447 -5.54582723632363  0.26354238903890
 6 -4.07755116511651 -3.30620355445545  0.58219911191119
 6 -3.49932429662966 -3.64552063666367  1.89953113281328
 8 -3.71834548914891 -3.00340357315732  2.99214292959296
 8 -2.80085143304330 -4.87008516101610  1.92031011901190
 6 -2.24242688118812 -5.21027149644965  3.18389972697270
 6  2.72220599719972 -0.73654291199120 -1.41086646154615
 6  4.15810913331333 -0.53661751115112 -0.69908243694369
 6  5.18095170257026  0.29615293979398 -1.02960286048605
 6  5.01650906750675  1.27230176647665 -2.25428251935194
 6  6.47865432303230  0.42776158305831 -0.33625031123112
 6  7.73327106600660 -0.16842872477248 -1.04793446214621
 6  8.97392647504750 -0.10632036553655 -0.19284187838784
 6  10.19855074807481 -0.46807390569057 -1.02899929432943
 6  10.02793998019802 -2.04007334223422 -1.37832949444945
 6  11.48652977007701 -0.23912480308031 -0.18117791909191
 6  12.83473064206420 -0.46668318421842 -0.82198273807381
 6  14.01409709750975 -0.00238700190019  0.02324953795380
 6  15.36686203020302 -0.19180179187919 -0.54003705400540
 6  15.61588569076908 -1.61886467226723 -0.84297157695770
 6  16.42363561756175  0.39883426952695  0.44957414211421
 6  17.79106481078108  0.46081420722072 -0.14250253015302
 6  18.76797219671967  1.18299014581458  0.84743710541054
 6  20.16331401120112  1.39158490309031  0.40066967056706
 6  20.42205243414341  2.06802245024502 -0.85725154655466
 6  21.09474734883489  1.97440180958096  1.58929563116312
 1 -4.07551781028103  3.46924530623062  1.49921444244424
 1 -10.17858160986099  3.92645022892289 -0.60707501010101
 1 -10.31043030483048 -2.56986704140414 -1.01796534403440
 1 -2.76654534523452 -1.08263792749275  1.99502674127413
 1 -2.28209784778478  1.72485097369737  1.00494486098610
 1 -1.87676139943994  0.98264375337534  3.49934014741474
 1 -3.00728551475147  2.13083253985399  3.64395896339634
 1 -3.81478245944594  0.58738310601060  3.49979386388639
 1 -2.14260678757876 -1.56441236163616 -0.52475746174617
 1 -2.19927412961296  0.06027811911191 -0.70607570917092
 1 -0.22200929492949  0.43583150665067  0.85876812871287
 1 -0.00313626732673 -1.22634560996100  1.22225510141014
 1 -5.15532770047005  6.31183635873587  0.52555433763376
 1 -6.30985565586559  6.64761456025603  1.96522121132113
 1 -5.03477670647065  5.52736790819082  2.26667034573457
 1 -9.74643214211421  5.84109704580458  0.41346919141914
 1 -9.06552719311931  8.06812540204020  0.14688528182818
 1 -7.24875991259126  7.76873744294429 -0.16948141874187
 1 -12.42948836163616  3.11512881818182 -2.13421972037204
 1 -13.35285049854985  1.93158879697970 -1.29996352005200
 1 -12.51509847124713  3.02779586498650 -0.59627112511251
 1 -12.51764429252925 -1.71019341754175 -1.18033824172417
 1 -13.41151715531553 -0.22868668166817 -1.61283864086409
 1 -12.99109957615761 -1.85087632683268 -3.37962095979598
 1 -12.15710588458846 -0.56338506440644 -3.99164673967397
 1 -11.14549789738974 -2.00380332433243 -3.19629874537454
 1 -9.10235113101310 -4.85125797409741 -1.88793637503750
 1 -7.83016671767177 -5.67717782598260 -0.59730395849585
 1 -9.35659782558256 -4.88222500950095 -0.06126438263826
 1 -3.40741087308731 -3.32960454495450 -0.13993064606461
 1 -1.24404549454946 -4.83969234653465  3.62593928092809
 1 -2.92132732013201 -5.52374301670167  3.97929515161516
 1 -1.86566799329933 -6.16629080618062  2.82063876677668
 1  2.55569024012401 -1.78333802370237 -1.70093416971697
 1  2.61804350455045 -0.09335641724172 -2.33292531233123
 1  4.06744596889689 -1.06418442464246  0.28542091829183
 1  4.03930486678668  1.32216331263126 -2.51515485778578
 1  5.40312361076108  2.33814820502050 -2.17479183378338
 1  5.53465878867887  0.72623295349535 -3.17540884018402
 1  6.77428045134513  1.51117734543454 -0.29952245454545
 1  6.34399774777478  0.16890364146415  0.63608461556156
 1  7.57046078817882 -1.20010108180818 -1.50812494119412
 1  7.98399993099310  0.43411028752875 -1.90964111101110
 1  9.19687578477848  0.98562117861786  0.19313327582758
 1  8.56750457325733 -0.60280863626363  0.60714533313331
 1  10.31898360986099 -0.17596282998300 -2.08093192379238
 1  9.15163165956596 -2.02897994229423 -2.00408536973697
 1  10.92841592629263 -2.55691220382038 -1.66596278227823
 1  9.90445791939194 -2.65120674327433 -0.48954104480448
 1  11.63161792399240  0.72433684118412  0.19954191759176
 1  11.55923633333333 -1.03585592369237  0.70685815881588
 1  12.97924366006601 -1.52790965236524 -1.00829916481648
 1  12.99993889988999  0.03916339533953 -1.87325568936894
 1  13.72777428062806  0.90297355285529  0.22297895839584
 1  14.06851294159416 -0.76868930623062  0.88500367006701
 1  15.26182857495750  0.31636149654966 -1.40222988248825
 1  15.67586958795880 -2.40164689058906 -0.14243184078408
 1  15.06516404820482 -2.05956415001500 -1.64870259065907
 1  16.58782684128413 -1.79914384298430 -1.33000510931093
 1  16.28161337103710  1.48520759345935  0.95849927092709
 1  16.50267196919692 -0.43201959765977  1.21939487118712
 1  18.23263245514552 -0.42976994079408 -0.32612862046205
 1  17.76682676387639  1.08439969846985 -1.08824230813081
 1  18.31246992979298  2.18748064766477  1.00466556745675
 1  18.80559683708370  0.62644625592559  1.85708205980598
 1  20.67305737243724  0.50568700450045  0.47826557695770
 1  19.90668750205021  3.14403338823882 -0.76631690119012
 1  21.32570868476848  2.19062494039404 -1.05374662866287
 1  19.98124895809581  1.59881128342834 -1.77251767506751
 1  20.87814783008301  1.18193749754975  2.47604704630463
 1  22.21866650715072  1.90930946214621  1.43561782798280
 1  20.80433296589659  2.96599027522752  1.95887181838184

