%nproc=4
%Mem=2GB
# td=(NStates=1) CAM-B3LYP/6-31G(d,p) 

TD

0 1
12 -7.22918458775878  0.56045428612861 -0.00780273167317
 6 -4.88079696079608 -1.88525063636364  0.40677631253125
 6 -4.92803210951095  2.92427675497550  1.32707616481648
 6 -9.40937552635264  3.04362676207621 -0.24086541954195
 6 -9.52865389298930 -1.80967114211421 -0.84732284728473
 7 -5.20280306190619  0.50607186768677  0.77326484688469
 6 -4.42502010731073 -0.61683230363036  0.70013191599160
 6 -3.01977293849385 -0.32064733683368  1.10374581578158
 6 -3.06394668386839  1.13385451795180  1.56140894729473
 6 -4.46869495619562  1.60700108050805  1.25661192239224
 6 -2.82472026302630  1.19218570587059  3.12710623672367
 6 -1.91355563646365 -0.57221123122312  0.09001832763276
 6 -0.45560381438144 -0.37777600900090  0.56595517841784
 6  0.51991136953695 -0.46300973307331 -0.58534018581858
 8  0.16738728842884 -0.78475987978798 -1.68579786008601
 8  1.77437446244624 -0.47001190799080 -0.15637985808581
 7 -7.13674128262826  2.53245465276528  0.34726988378838
 6 -6.11956908790879  3.38786974087409  0.88763674767477
 6 -6.49706769646965  4.79103973437344  1.03911167566757
 6 -7.81990258565857  4.85058494519452  0.48782568956896
 6 -8.21653220642064  3.42416270757076  0.14888522772277
 6 -5.61507728892889  5.93138422972297  1.46890341554155
 6 -8.68227744014401  5.94867993599360  0.32300232213221
 6 -8.38154735253525  7.21617770207021 -0.01485574787479
 7 -9.14667970367037  0.62245872417242 -0.61772347764777
 6 -9.91973363236324  1.74571525412541 -0.64312943714371
 6 -11.18698344124413  1.39311030143014 -1.01849659925993
 6 -11.27934645534553  0.01361523882388 -1.24799406560656
 6 -10.00392027572757 -0.49141762986299 -0.91045034793479
 6 -12.29503774587459  2.41577385828583 -1.26079661056106
 6 -12.37366741244124 -0.90373143534353 -1.82804798199820
 6 -12.28759509150915 -1.10472435763576 -3.33065117051705
 7 -7.27897414951495 -1.37057641924192 -0.15250836953695
 6 -8.31967719001900 -2.20834677417742 -0.54637244314431
 6 -7.97868553605360 -3.63700788368837 -0.38719714871487
 6 -6.53550907290729 -3.59710402590259 -0.14429692179218
 6 -6.17168194639464 -2.14744089858986 -0.01197957655766
 6 -8.71410175487549 -4.94928774767477 -0.71654120112011
 6 -5.36898343604360 -4.28950493579358  0.07585608550855
 8 -5.13947530933093 -5.47593024662466  0.09776581138114
 6 -4.22684609460946 -3.28486142024202  0.47390828282828
 6 -3.48398276247625 -3.57393347794779  1.79267044674467
 8 -3.68740239483948 -2.95392862566257  2.84411812711271
 8 -2.75433678157816 -4.69128728122812  1.73780186818682
 6 -2.16994963346335 -5.14644511381138  2.89179051605160
 6  2.78104188078808 -0.77707696539654 -1.15243061796180
 6  4.07201052345235 -0.55891974137414 -0.46159868856886
 6  5.08122172957296  0.12886621112111 -0.94982488268827
 6  5.02555997259726  1.11566610291029 -2.18441553265327
 6  6.40255671327133  0.30112891979198 -0.25723240944094
 6  7.75986372527253 -0.29708159005901 -0.87555722442244
 6  9.03380246264626 -0.18528826232623 -0.08189078327833
 6  10.39297019001900 -0.42459955825583 -0.79015540994099
 6  10.41987917411741 -1.84155349024902 -1.34955661716172
 6  11.58863998109811 -0.05285617621762  0.07136733543354
 6  12.85099226822682 -0.39621613751375 -0.54440498029803
 6  14.07401308910891 -0.05103186638664  0.13619083208321
 6  15.38714405840584 -0.17316992869287 -0.44431748204821
 6  15.61545564776478 -1.59722250805081 -0.86222350215021
 6  16.49394264826482  0.29902428852885  0.39063824852485
 6  17.91545725002500  0.41673979977998 -0.15260354025403
 6  18.89228462796280  1.25931777857786  0.66939930163016
 6  20.21156883668367  1.25697144174417  0.18800840444044
 6  20.39346957585758  2.07290293829383 -1.18263408480848
 6  21.31671954605461  1.86790115951595  1.26728342994299
 1 -4.15775603410341  3.32307068876888  1.70265478647865
 1 -10.22984673637364  3.83945152905291 -0.38924322692269
 1 -10.35786504830483 -2.74903495819582 -1.08894244174417
 1 -2.76533522422242 -0.89627929162916  1.97190442904290
 1 -2.38030766876688  1.92534102270227  1.40561492799280
 1 -1.73746747004700  1.02596808580858  3.20693090649065
 1 -2.81402618881888  2.40156961356136  3.43591815931593
 1 -3.60802178337834  0.48232259996000  3.72213609810981
 1 -1.94544707160716 -1.56718263866387 -0.40643562956296
 1 -2.21004520672067  0.05827791909191 -0.75672077367737
 1 -0.45965305930593  0.57752567606761  1.16353860576058
 1 -0.18874482818282 -1.06930990639064  1.27117999389939
 1 -4.91450361806181  6.36112128722872  0.57901968416842
 1 -6.11494616491649  6.68662846164616  2.27577226642664
 1 -4.72232546134613  5.58498366976698  2.14430810951095
 1 -9.68351585048505  5.67409034513451  0.33464130863086
 1 -8.92791343174317  8.08166675617562 -0.25723513021302
 1 -7.39880491709171  7.71565213441344  0.02956848624862
 1 -12.08962437523753  3.12638994429443 -2.04442074047405
 1 -13.19857507100710  1.74392003010301 -1.36642016571657
 1 -12.37948490989099  2.70541362676268 -0.22670416841684
 1 -12.35695822392239 -1.90775317351735 -1.27532774067407
 1 -13.39937594119412 -0.69449326232623 -1.49586694369437
 1 -13.03464393059306 -1.74455569476948 -3.71288428612861
 1 -12.59145931993199 -0.10977970387039 -3.78340591559156
 1 -11.29624297189719 -1.60859380338034 -3.67684680018002
 1 -8.85482637853785 -4.61094394269427 -1.74558213961396
 1 -7.99454315531553 -5.73853396159616 -0.54002823092309
 1 -9.80897306310631 -4.95888267526753 -0.16805506170617
 1 -3.29273940594059 -3.38452003650365 -0.26015266826683
 1 -1.54472556255626 -4.44023240054005  3.32239892689269
 1 -3.00780596799680 -5.40709135153515  3.70741796389639
 1 -1.55074650115011 -6.06364054115412  2.67584428732873
 1  2.39703437453745 -1.77556724662466 -1.62549662596260
 1  2.71252295249525 -0.12594967656766 -1.96538855865587
 1  4.39372859715972 -1.26099410561056  0.42400477667767
 1  3.95002593889389  1.16829792609261 -2.50683402570257
 1  5.30640393879388  2.04108849904990 -1.79138349294930
 1  5.69943526632663  0.85946627682768 -3.07953925322532
 1  6.75841886518652  1.27283351105110  0.05883338103810
 1  6.36107945594559 -0.09908315721572  0.71259226632663
 1  7.73684742684268 -1.41274234593459 -1.02445657435744
 1  8.09411094209421  0.19749662616262 -2.00510065696570
 1  8.92444854205421  0.84977759425943  0.28339230173017
 1  8.90799862266227 -0.75416377177718  0.87451206980698
 1  10.44287599909991  0.27674244054405 -1.77224105470547
 1  9.24055055145515 -2.11327837213721 -1.59459442064206
 1  11.19314239893989 -2.16363287588759 -2.12321850785079
 1  10.32903037663766 -2.60250187278728 -0.54936702740274
 1  11.47054181638164  1.04574898239824  0.47489945334533
 1  11.53774418411841 -0.65481781988199  1.13950142314231
 1  12.89993572927293 -1.48493535493549 -0.87339567446745
 1  12.95535444144415  0.31492097109711 -1.40255861966197
 1  13.91067257045705  1.24864812031203  0.43306996749675
 1  13.93692978327833 -0.39492192949295  1.04647981768177
 1  15.49953234533453  0.44003386378638 -1.48304796429643
 1  15.58106010701070 -2.38052477837784 -0.17767536513651
 1  14.94849238103810 -1.88014620822082 -1.46029374977498
 1  16.72098015661566 -1.81324525312531 -1.14958706750675
 1  16.15302051175117  1.32155122782278  0.71981540254025
 1  16.53926562856286 -0.32483887958796  1.20614354605461
 1  18.36740593249325 -0.54593155695570 -0.35413142074207
 1  17.82927300850085  0.79748100660066 -1.20648413231323
 1  18.29854853765377  2.30887278687869  0.64422952385238
 1  19.00390666806680  0.91873548484848  1.71969832143214
 1  20.58758882558256  0.09365580138014  0.11391914231423
 1  19.99779661296130  3.07022600750075 -0.98785905540554
 1  21.55586170007001  2.04557043494349 -1.38326958095810
 1  19.83307414061406  1.57914931723172 -1.92649307260726
 1  21.32109212451245  1.26099540334033  2.29436887848785
 1  22.23701834233423  1.56080461166117  0.49612387858786
 1  21.25472800540054  2.88694237043704  1.27680361156116

