%nproc=4
%Mem=2GB
# td=(NStates=1) CAM-B3LYP/6-31G(d,p) 

TD

0 1
12 -7.17664933423342  0.53848208890889  0.14009205780578
 6 -4.84491337243724 -1.94444655595560  0.56389202410241
 6 -4.79010831713171  2.74908923622362  1.27712116931693
 6 -9.44841943074307  3.06183858325833 -0.34827616061606
 6 -9.52130315791579 -1.84087426242624 -0.81662977797780
 7 -5.11936471807181  0.40473173367337  0.83828134853485
 6 -4.37878548384839 -0.74687530793079  0.79462136493649
 6 -2.82545350655066 -0.36250152225223  1.22393783498350
 6 -3.01095138433843  1.05938707120712  1.75579838623862
 6 -4.40111819851985  1.48096847724772  1.22349861106111
 6 -2.99576736773677  1.19114560186019  3.30539406550655
 6 -1.85866014691469 -0.49954396449645  0.05594492029203
 6 -0.45405365936594 -0.33996222762276  0.44539312221222
 6  0.55998537693769 -0.48482191429143 -0.65501715351535
 8  0.16114666436644 -0.76167757155716 -1.85696497679768
 8  1.73940096509651 -0.39970487728773 -0.23186740684068
 7 -7.05973358185819  2.49726113341334  0.37201235803580
 6 -6.02188931993199  3.31524247814781  0.82527051105111
 6 -6.32841083078308  4.66792742314231  0.74926269076908
 6 -7.67227782318232  4.80321020772077  0.38886579357936
 6 -8.04502505570557  3.50962125342534 -0.05004466526653
 6 -5.71989777097710  5.83709480078008  1.39684620982098
 6 -8.54507371977198  6.00233530153015  0.33116313821382
 6 -8.25904510231023  7.27382346664666 -0.07252151445145
 7 -9.08473350905090  0.68811528982898 -0.53202490779078
 6 -9.89044070307031  1.74630531313131 -0.69272439663966
 6 -11.18718346124612  1.49047003740374 -1.14646939653965
 6 -11.25792431313131  0.08788266556656 -1.20314958115812
 6 -9.94510439413941 -0.36973546164616 -0.77518682158216
 6 -12.17626586868687  2.46325860676068 -1.35452598349835
 6 -12.51120116581658 -0.82117317951795 -1.71414659185919
 6 -12.40972730473047 -1.21002488768877 -3.15442354775478
 7 -7.20741699379938 -1.44706406800680 -0.15209832853285
 6 -8.28097331963196 -2.29585552505251 -0.45135294119412
 6 -7.84144181168117 -3.65386956985699 -0.49789821882188
 6 -6.55277079907991 -3.59187350285029 -0.12808530063006
 6 -6.16541131933193 -2.21511766626663  0.17245886728673
 6 -8.52815316001600 -4.93276609550955 -0.86984653165317
 6 -5.37275381308131 -4.33667965326533  0.24219271917192
 8 -5.21854321612161 -5.50014266786679  0.23013904870487
 6 -4.11512492249225 -3.27558049214921  0.54014490649065
 6 -3.53014737893789 -3.71834791939194  1.84017519721972
 8 -3.75949960456046 -3.13686691949195  2.94025774107411
 8 -2.64079542744274 -4.67582573507351  1.74673276127613
 6 -1.97082972147215 -5.02839330863086  2.82933427042704
 6  2.80993477007701 -0.45348460616062 -1.36921229612961
 6  4.10767408980898 -0.36501035043504 -0.64288681738174
 6  5.16673028042804  0.42521584608461 -0.97620752095210
 6  5.11083850045005  1.39740427672767 -2.17009410051005
 6  6.45573203080308  0.38587739463946 -0.18380506670667
 6  7.57357509640964 -0.11881376327633 -1.01770143884388
 6  8.92431151355136 -0.12076180968097 -0.21560415461546
 6  10.15803669666967 -0.59561665996600 -0.85246164056406
 6  9.97196438263826 -1.94394372927293 -1.44321598309831
 6  11.34467558465847 -0.31373226382638 -0.00294009530953
 6  12.70538770777078 -0.60112662856286 -0.63024356415642
 6  13.91406709450945 -0.19167593079308  0.17619483248325
 6  15.37132247624763 -0.21417402910291 -0.45198824912491
 6  15.53608771097110 -1.60021280708071 -1.04100137993799
 6  16.42351560556055  0.22824721082108  0.54647383208321
 6  17.79979568386839  0.48755688148815 -0.15223350325033
 6  18.76540193969397  1.24576642344234  0.76352871457146
 6  20.25369304910491  1.37444318891889  0.26211581518152
 6  20.35897612651265  2.14591023902390 -0.97751357275728
 6  21.21354922902290  1.81171554095410  1.34903160476048
 1 -3.89277953645364  3.48806718841884  1.61140566156616
 1 -10.11662541424142  4.03854143804380 -0.53324762736274
 1 -10.25966522832283 -2.65833588828883 -1.13780732823282
 1 -2.75106379707971 -1.11982164586459  1.89680691929193
 1 -2.19552919091909  1.92332082068207  1.33185755225523
 1 -2.11345506880688  0.81966745574557  3.58356857025703
 1 -3.34614940114011  2.37076653325332  3.52211677917792
 1 -3.77683866506651  0.59931429912991  3.72051593609361
 1 -2.00784331123112 -1.47468338873887 -0.37047203320332
 1 -2.06894109630963  0.19704179547955 -0.58766386798680
 1 -0.28116521052105  0.72774069756976  0.77788003990399
 1 -0.04846079977998 -0.95589856525653  1.35204808070807
 1 -4.79346151385139  6.28247342244225  0.66216799899990
 1 -6.44733940424042  6.47255705450545  1.93651834103410
 1 -5.02223545234523  5.56969214061406  2.26328000670067
 1 -9.67579507840784  5.91505444154416  0.47000484498450
 1 -9.08246888728873  7.97341593109311 -0.10571997869787
 1 -7.24931996859686  7.44299486868687 -0.54287875847585
 1 -12.08493390619062  3.04709201450145 -2.40956725512551
 1 -13.27032224572457  1.85015065316532 -1.21669519321932
 1 -12.01567852925293  3.39358244364436 -0.67661915991599
 1 -12.52734526262626 -1.73748614681468 -1.11219142704270
 1 -13.27054305790579 -0.16785059805981 -1.35910326732673
 1 -13.16678714491449 -1.74353559275928 -3.47774077177718
 1 -12.31881205520552 -0.42877160306031 -4.01440901590159
 1 -11.52705605320532 -1.80088303230323 -3.50730984648465
 1 -8.63770466636664 -5.04152700100010 -1.90396797819782
 1 -7.97295099609961 -5.69974008220822 -0.58969319741974
 1 -9.47619978577858 -4.93327011401140 -0.39771802800280
 1 -3.41720185218522 -3.40154173867387 -0.16205285828583
 1 -1.35557664766477 -4.29501787908791  3.38594528152815
 1 -2.57698288568857 -5.34838548094809  3.67196441854185
 1 -1.25844727122712 -5.79621379847985  2.61107781068107
 1  2.48483315441544 -1.50496018591859 -2.12612668896890
 1  2.56362806300630  0.29708262666267 -2.16826884668467
 1  4.06099532383238 -1.14334234043404  0.24391676787679
 1  4.04284522082208  1.52062315861586 -2.48200154245425
 1  5.39775307370737  2.44266865706571 -1.60847520212021
 1  5.80907623042304  1.19036936713671 -2.92395369466947
 1  6.60670369366937  1.38303453115312  0.28852635033503
 1  6.27944129212921 -0.09344259315932  0.71660266736674
 1  7.30703444554455 -1.06394746644664 -1.50107423612361
 1  7.96439797079708  0.58013488998900 -1.81490163706371
 1  8.93628972617262  0.99278189468947  0.15576953945395
 1  8.76874469726973 -0.62996135153515  0.80615523412341
 1  10.29763147464747  0.08097286358636 -1.77403123372337
 1  9.23168966536654 -1.96463350765077 -2.18113307450745
 1  11.05004808950895 -2.47964447704771 -1.73165935193519
 1  9.75415288888889 -2.49181080368037 -0.59178126882688
 1  11.23472823502350  0.64811921942194  0.41622358575858
 1  11.34162457215722 -1.00483282138214  0.85318279127913
 1  12.90161589728973 -1.71635849724973 -0.80347868276828
 1  12.97058596459646 -0.06970749174918 -1.60241860566057
 1  13.86486798999900  0.76426968246825  0.50131679217922
 1  13.99616570687069 -0.76207864516452  0.95457062676268
 1  15.39442183428343  0.54964482488249 -1.33234289378938
 1  15.45221722272227 -2.35004173007301 -0.24496209380938
 1  14.60909844164416 -1.74720291389139 -1.86348406880688
 1  16.40184824342434 -1.81866579517952 -1.55435754455446
 1  16.07110231993199  1.18837791049105  1.16757017801780
 1  16.62659436143614 -0.72465886158616  1.51284421612161
 1  18.39735892779278 -0.56177314111411 -0.40940694829483
 1  17.52962304350435  0.86766802530253 -1.24142762666267
 1  18.27739642244224  2.31239313891389  1.08332343324332
 1  18.94887116451645  0.74438805010501  1.67426377797780
 1  20.63009307600760  0.35033146894689  0.12847059745975
 1  19.80675750905091  3.16754573947395 -0.69319958945895
 1  21.43951006490649  2.50510638853885 -1.36048730273027
 1  19.79694052725272  1.90982238453845 -1.77983840714071
 1  21.24419443474347  1.09496880068007  2.04673411501150
 1  22.18836347684768  1.85260379157916  0.95210947714771
 1  21.07675020762076  2.89825350155016  1.68465439663966

