%nproc=4
%Mem=2GB
# td=(NStates=1) CAM-B3LYP/6-31G(d,p) 

TD

0 1
12 -7.18190986028603  0.55316355705571  0.10527857645765
 6 -4.86217509860986 -1.93137524882488  0.41927756265627
 6 -4.93515282158216  2.82034636193619  1.20686414361436
 6 -9.42085667446745  3.12416481588159 -0.37253858685869
 6 -9.57973900150015 -1.75195537053705 -0.86000411541154
 7 -5.14593737533753  0.44142540304030  0.78226574697470
 6 -4.38847645294529 -0.69616023642364  0.72690459325933
 6 -2.96852781398140 -0.36006127822782  1.31692713391339
 6 -3.08366865606561  1.10701183368337  1.71507431383138
 6 -4.47091517821782  1.50394077447745  1.23152941414141
 6 -3.02384017501750  1.32687917521752  3.26844037013701
 6 -1.95677995889589 -0.63211722182218  0.18264759055906
 6 -0.46625487948795 -0.33540177157716  0.62670125302530
 6  0.44687406580658 -0.56081951405140 -0.53362501430143
 8  0.12783333303330 -0.71218262206221 -1.69568884918492
 8  1.74078110311031 -0.48445335213521 -0.09315353545355
 7 -7.17139474797480  2.63167457475748  0.23442859965997
 6 -6.12847997899790  3.34790574447445  0.66047403140314
 6 -6.45631362106211  4.80196082648265  0.83294105860586
 6 -7.77478807420742  4.82609249594960  0.38942584958496
 6 -8.17395794899490  3.51617190849085 -0.01470113091309
 6 -5.55358113931393  5.87647873917392  1.42661918711871
 6 -8.71840105250525  5.91484655265527  0.35457547944794
 6 -8.40757995579558  7.22227831213121  0.06401213891389
 7 -9.15680071577158  0.60357683598360 -0.60256196149615
 6 -9.87887954695469  1.72795347794779 -0.63465859005901
 6 -11.25614035693569  1.40722171257126 -1.10560531013101
 6 -11.31231975267527  0.03437731503150 -1.21287055325533
 6 -9.98647853155316 -0.45019350745075 -0.84099340224022
 6 -12.34294253635364  2.46123840474047 -1.31674220512051
 6 -12.47621766746675 -0.75082614481448 -1.62962814001400
 6 -12.39935626762676 -1.07126101130113 -3.14554265966597
 7 -7.17773402550255 -1.38770813241324 -0.16249936863686
 6 -8.28228345064507 -2.29865580508051 -0.62101990789079
 6 -7.80209787728773 -3.64953913681368 -0.46075450445045
 6 -6.45336085808581 -3.60591490699070 -0.18444093619362
 6 -6.16151092929293 -2.19281543604360  0.04049567096710
 6 -8.63964430913091 -4.86523934283428 -0.87344689168917
 6 -5.28214475217522 -4.39886587188719  0.13418191809181
 8 -5.11010237203720 -5.57360001360136  0.07674370917092
 6 -4.20345375537554 -3.24427736183618  0.53298419041904
 6 -3.55982034623462 -3.59930601520152  1.84758593829383
 8 -3.64900855545555 -2.99290252305231  2.88327204250425
 8 -2.78929027692769 -4.76166431893189  1.76107419541954
 6 -2.10441307980798 -5.08366883618362  2.96750808780878
 6  2.76918069466947 -0.62771202890289 -1.06101147604760
 6  4.11793511591159 -0.55079892929293 -0.47490001870187
 6  5.14799840724072  0.24989831433143 -0.90180008020802
 6  5.14790220682068  1.13426796309631 -2.18462555365537
 6  6.42494895249525  0.39791859875988 -0.19834652085209
 6  7.72310004890489 -0.20752263416342 -0.84720438913891
 6  9.01324040644064 -0.15794552805281 -0.09573216741674
 6  10.30086097909791 -0.55000209850985 -0.90458685308531
 6  10.19075626182618 -1.89869920482048 -1.51255291679168
 6  11.58674979207921 -0.39581047164716 -0.08177797909791
 6  12.87887505650565 -0.45231174707471 -0.89445998579858
 6  14.09400508830883 -0.19285604880488  0.00389760276028
 6  15.44632997699770 -0.21677428912891 -0.57242029232923
 6  15.84351845404541 -1.64214700050005 -1.02018929872987
 6  16.49542279627963  0.40470485658566  0.41397058175818
 6  17.93410911521152  0.41907003280328 -0.19882816271627
 6  18.83426882638264  1.24604645144514  0.83236559825983
 6  20.30453813361336  1.33789953455346  0.33454305790579
 6  20.41685191409141  2.21490713871387 -1.00983680508051
 6  21.12457033113311  1.99316368576858  1.38065476707671
 1 -4.28820907940794  3.60896927862786  1.67584210521052
 1 -10.07160091179118  3.95013259715972 -0.90445474807481
 1 -10.21159042084208 -2.59521957665767 -1.21801534903490
 1 -2.75050374107411 -1.03155281898190  2.27317455605561
 1 -2.45427506550655  1.78289677827783  1.24783915041504
 1 -2.02223594689469  0.77397288628863  3.66266648004801
 1 -3.46342112831283  2.19966942354235  3.41079564706471
 1 -3.79035001620162  0.63422779047905  3.54297818231823
 1 -1.94558708560856 -1.64738065846585 -0.41764675067507
 1 -2.13961816401640  0.19374146544654 -0.53000810241024
 1 -0.37745483948395  0.65593351685169  1.18202045394539
 1 -0.23439939363936 -1.00132310771077  1.52762563846385
 1 -4.94626679437944  6.20535571067107  0.55795757795780
 1 -6.40779544984498  6.67935773457346  1.36721141034103
 1 -5.23844707350735  5.56427159855986  2.42810648934893
 1 -9.68349584848485  5.60191312741274  0.58632647714772
 1 -9.09177981838184  8.14155274477448  0.20951154445445
 1 -7.31410644724472  7.55359592879288 -0.12172664326433
 1 -11.63819923272327  3.43479078437844 -1.88652495089509
 1 -13.23396861036104  2.00643628172817 -1.90988451215122
 1 -12.74680164156416  2.90832391779178 -0.32377387538754
 1 -12.58731125922592 -1.80544294249425 -1.21923213111311
 1 -13.49290529412941 -0.10397421042104 -1.42696005300530
 1 -13.29456992319232 -1.63180441964196 -3.43887688538854
 1 -12.19513968796880 -0.12678140404040 -3.81320889588959
 1 -11.51902525012501 -1.55617856185619 -3.28811792729273
 1 -9.10620151605161 -4.66756960526053 -1.69320690209021
 1 -7.97504120512051 -5.68569867806781 -1.01100532863286
 1 -9.66826899269927 -4.93592037903790 -0.25516377257726
 1 -3.58323845584558 -3.45907749224922 -0.52722937593759
 1 -1.50124121412141 -4.18102647994799  3.41609829682968
 1 -2.84951013841384 -5.59858050045005  3.77370459255926
 1 -1.23427485398540 -5.71180535763576  2.85324202710271
 1  2.63071774287429 -1.78116780668067 -1.38073214951495
 1  2.33228492869287 -0.06030311191119 -1.87484950475047
 1  4.20527975227523 -1.02566057225723  0.46236861306131
 1  4.20047098339834  1.31321241754175 -2.64660800310031
 1  5.69426272467247  2.17552194239424 -1.91675603020302
 1  5.82353767656766  0.53598392859286 -2.97616891619162
 1  6.56530955425543  1.51359758745875 -0.20593309560956
 1  6.42558590659066  0.26091284238424  0.99706071317132
 1  7.60443418551855 -1.14876594829483 -1.18368249694969
 1  7.94951648264827  0.26044292079208 -1.85832597949795
 1  9.37009310651065  0.81197381388139  0.34621858435844
 1  8.91737956075607 -0.82783113851385  0.77150176877688
 1  10.13448516001600  0.32715748204821 -1.81544537513751
 1  9.19790628702870 -1.98007505180518 -2.14425938713871
 1  11.02191527622762 -2.33230974357436 -1.97796398239824
 1  9.97984545814582 -2.54730635323532 -0.59400149084908
 1  11.54483924612461  0.49864427192719  0.23889585298530
 1  11.52816322602260 -1.17383972207221  0.58329580258026
 1  12.89404514021402 -1.50160702210221 -1.26105444034403
 1  12.85472437843784  0.13441292029203 -1.55861422522252
 1  13.88651015421542  0.80935419091909  0.49600626112611
 1  14.10047613791379 -1.05428786608661  0.96486165586559
 1  15.45025741784178  0.36717657805781 -1.46733639313931
 1  16.01765376637664 -2.26573329922992 -0.19030662826283
 1  15.21133866566657 -2.21365955955596 -1.77654537493749
 1  16.89984804340434 -1.45058898749875 -1.55092720152015
 1  16.11704691439144  1.28479755245525  0.73658707970797
 1  16.35414711671167 -0.22795919161916  1.26055898759876
 1  18.46801599349935 -0.55227219101910 -0.34250025762576
 1  17.97215729692969  0.89990124862486 -1.25291877577758
 1  18.61165984878488  2.15821772137214  1.08067316821682
 1  18.67034331173117  0.63590720202020  1.86753310491049
 1  20.76162622932293  0.36361279707971  0.05728347874787
 1  19.85045187848785  3.16451543644364 -0.87389765926593
 1  21.33103921782178  2.09027490539054 -1.26715796979698
 1  19.75249608280828  1.64111551385138 -1.73355377867787
 1  20.94636465176518  1.22593189698970  2.30833027462746
 1  22.19526416691669  1.75430396159616  1.07169143534353
 1  20.80923345594559  2.97119079527953  1.53378931013101

