%nproc=4
%Mem=2GB
# td=(NStates=1) CAM-B3LYP/6-31G(d,p) 

TD

0 1
12 -7.16687835713571  0.54993323402340  0.15610365896590
 6 -4.86910579167917 -1.91990410171017  0.49993562846285
 6 -4.86882618891889  2.81004533183318  1.26422988018802
 6 -9.37922251105110  3.07959035843584 -0.31759309230923
 6 -9.63366439403940 -1.79628980398040 -0.92165028002800
 7 -5.16303908550855  0.48324958545855  0.76455397579758
 6 -4.35016262156216 -0.70594121452145  0.79630153295330
 6 -2.88447940914091 -0.47069234133413  1.17223266446645
 6 -2.99055934513451  1.03581471397140  1.70049285568557
 6 -4.33839192589259  1.50414079447945  1.20528678987899
 6 -2.91811960296030  1.10837732503250  3.22582610871087
 6 -1.84208848974898 -0.63319732983298  0.11660098589859
 6 -0.39774802880288 -0.60237846924692  0.54570315321532
 6  0.55134451285129 -0.68323175527553 -0.65764741654165
 8  0.21916246594659 -1.06742814661466 -1.74442372267227
 8  1.87646467146715 -0.36149105590559 -0.25362958305831
 7 -7.13186079457946  2.59318072537254  0.40529568636864
 6 -6.09917704870487  3.34515546944694  0.83613159715972
 6 -6.46853484318432  4.70867149754975  0.87876564106411
 6 -7.82329292469247  4.78992887958796  0.34535144214421
 6 -8.14566511971197  3.45638592989299  0.11017135633563
 6 -5.63446922812281  5.80602169346935  1.48710523572357
 6 -8.65062427482748  5.96338140614061  0.33337335923592
 6 -8.23089228702870  7.27201328562856  0.12092783048305
 7 -9.07952298799880  0.60627710601060 -0.50469217451745
 6 -9.81424308330833  1.78663934653465 -0.69584470867087
 6 -11.24475921882188  1.43843483388339 -1.15322007160716
 6 -11.24194271497150  0.06475035233523 -1.19759902610261
 6 -9.89941982568257 -0.39920840894089 -0.85848515141514
 6 -12.30229847194719  2.43052533343334 -1.40759129002900
 6 -12.33874392009201 -0.74963602580258 -1.83364854205421
 6 -12.29425575757576 -1.00030391559156 -3.28933703910391
 7 -7.27270352245224 -1.38116747834783 -0.16745986468647
 6 -8.37498272057206 -2.23633957345735 -0.46880468636864
 6 -7.90427809530953 -3.49981416431643 -0.50542897189719
 6 -6.54015953795380 -3.52842715821582 -0.06580907300730
 6 -6.18613339153915 -2.19121527602760  0.07216883828383
 6 -8.79347969266927 -4.78259107800780 -1.01904145114511
 6 -5.30186672437244 -4.34426041134113  0.15115361526153
 8 -5.12044340614061 -5.46588924252425  0.14697073187319
 6 -4.28987239723972 -3.24273720782078  0.49065995799580
 6 -3.67191155535554 -3.64816090069007  1.95519669936994
 8 -3.83831748634863 -3.01363459625963  2.93882759805981
 8 -2.89962131003100 -4.80821897439744  1.79999808780878
 6 -2.33785642414241 -5.18816928622862  3.06874821182118
 6  2.80382415901590 -0.68516777447745 -1.25250062496250
 6  4.08810213261326 -0.41562541194119 -0.60307283598360
 6  5.10116372377238  0.34395772027203 -1.02482238243824
 6  5.02695011161116  1.17874241054105 -2.34027111821182
 6  6.43981043864386  0.34887369426943 -0.21824851105111
 6  7.72524026292629 -0.16430831273127 -0.96891656035604
 6  9.02845192759276  0.06160642714271 -0.24039663386339
 6  10.21837273027303 -0.37011410971097 -0.88244463886389
 6  10.14354154035404 -1.87670700560056 -1.31466312781278
 6  11.44322543964396 -0.13583447404740 -0.02800260156016
 6  12.83716088508851 -0.54824134003400 -0.53233377317732
 6  14.07925361316132 -0.14529129232923  0.36280349334934
 6  15.43058840284028 -0.26000861256126 -0.39836288658866
 6  15.78009211141114 -1.72879566536654 -0.79599687948795
 6  16.47135038903890  0.38989337543754  0.42978216291629
 6  17.94845054935494  0.37611573737374 -0.10110839073907
 6  18.87002240174018  1.27462930973097  0.72000436213621
 6  20.27092477227723  1.43192893749375  0.12266186978698
 6  20.31746197509751  2.22838848684869 -1.14338015941594
 6  21.27162503660366  2.00756512591259  1.10193689528953
 1 -3.98436869536954  3.58723710541054  1.73350787178718
 1 -10.20336408810881  3.74871245514552 -0.46614091669167
 1 -10.35868513031303 -2.56754680938094 -1.31531507900790
 1 -2.62510120082008 -1.20081974567457  2.08168540714071
 1 -2.33171280928093  1.78301679027903  1.12130649714972
 1 -1.90937466076608  1.00274576357636  3.65404561796180
 1 -3.08306309250925  2.19577903450345  3.66279084658466
 1 -3.77915889708971  0.48753312101210  3.76873075757576
 1 -2.09127165406541 -1.67219313971397 -0.41079606560656
 1 -2.21146534873487  0.03517560886089 -0.86677177877788
 1 -0.19884697869787  0.34985290879088  0.85577782968297
 1  0.01726577287729 -1.29386236163616  1.25063793969397
 1 -5.01131329902990  6.23963913901390  0.80054183638364
 1 -6.11617628792879  6.56079587838784  2.13139782898290
 1 -4.96331956075608  5.31307647904791  2.26366004470447
 1 -9.67964546344634  5.84155709180918  0.54579242374237
 1 -9.07711835223522  8.01408999849985  0.16891748504851
 1 -7.02459749634964  7.60376094529453  0.19093462286229
 1 -11.94826023882388  3.10221752705271 -2.21586788518852
 1 -13.28711392489249  1.88184382248225 -1.43639716341634
 1 -12.47742470387039  3.03100618601860 -0.64816631463146
 1 -12.70031255935594 -1.61092349054906 -1.32409261716172
 1 -13.21780778437844 -0.15576938993899 -1.80168752575258
 1 -13.26219668586859 -1.24664590379038 -3.65617861556156
 1 -12.03079325332533  0.09260053415342 -3.75133270827083
 1 -11.43843719131913 -1.75470841484148 -3.51254036953695
 1 -8.98114901080108 -4.85188803710371 -2.21293887528753
 1 -8.29162286328633 -5.73121322952295 -0.50344457255726
 1 -9.74195636143614 -4.82896968396840 -0.47521577777778
 1 -3.46962709470947 -3.46130771527153 -0.35482213521352
 1 -1.62739382938294 -4.30112849014901  3.36042272927293
 1 -3.15302048944895 -5.47338798119812  3.81369859195920
 1 -1.80388181468147 -6.14816899399940  2.97607431033103
 1  2.40702537363736 -1.67041673157316 -1.47739181548155
 1  2.39210091029103 -0.11223830543054 -2.09689170897090
 1  4.18294751905191 -0.87700570677068  0.44065644184418
 1  4.06854779107911  0.97650874717472 -2.90394373667367
 1  5.40890418881888  2.01520591079108 -1.99389374397440
 1  5.61253657645765  0.62305263546355 -3.05915721502150
 1  6.66453947724773  1.44338056575658  0.08608610631063
 1  6.39880322832283 -0.23984723362336  0.65169617671767
 1  7.40020376247625 -1.23697476917692 -1.05986011471147
 1  7.61919345034503  0.33172004850485 -2.07318746564656
 1  8.93976007320732  1.26441905840584  0.06452041454145
 1  8.98003582638264 -0.41424978037804  0.67392201080108
 1  10.41506321782178  0.18488325462546 -1.87309113971397
 1  9.25490198659866 -2.13532057635764 -2.04550951215122
 1  11.02358544324432 -1.99886639923992 -1.96957314331433
 1  10.19139661326133 -2.70079170177018 -0.44683677437744
 1  11.50331509370937  0.72779718721872  0.43872583598360
 1  11.19078948864886 -0.64888722682268  0.84785225822582
 1  12.99219495519552 -1.53919078047805 -0.79106744164416
 1  12.95133403940394  0.08081756075608 -1.32866122992299
 1  14.02955445864587  0.79196245174517  0.58937559805981
 1  13.90063615391539 -0.60160259755976  1.23203837353735
 1  15.37187958005801  0.43205306570657 -1.21175083458346
 1  15.93610561156116 -2.28692541844184  0.14113651605161
 1  15.05496302810281 -2.29240743434343 -1.25580330073007
 1  16.82678073667367 -2.01746567516752 -1.29881198999900
 1  16.33294850455045  1.48456752945295  0.53437685868587
 1  16.45362706470647 -0.13313970967097  1.55762869456946
 1  18.57713690559056 -0.62502946674668 -0.09070507810781
 1  17.98005808700870  0.44104536303630 -1.32260574447445
 1  18.51853053585359  2.34831673127313  0.84378947984799
 1  18.94025030243024  1.00157376867687  1.82934928652865
 1  20.67356742344234  0.41345778157816 -0.17484973457346
 1  20.45066189948995  3.49827881278128 -1.07602787228723
 1  21.35419153305331  2.02223810171017 -1.62936419041904
 1  19.48103893709371  2.13115451775178 -2.04702512581258
 1  21.28024804010401  1.32684198799880  2.03673311491149
 1  22.34013865436544  1.70261879307931  0.71236550275027
 1  21.32341487408741  3.17146082228223  1.44029996119612

