%nproc=4
%Mem=2GB
# td=(NStates=1) CAM-B3LYP/6-31G(d,p) 

TD

0 1
12 -7.16291796109611  0.56363460416042  0.14629267786779
 6 -4.73641252235223 -1.99175128642864  0.52542817771777
 6 -4.75965527182718  2.78915324262426  1.14210766796680
 6 -9.46179076787679  3.04183658305831 -0.30365169816982
 6 -9.51966299389939 -1.79923009800980 -0.82410052505251
 7 -5.09120190179018  0.42584384488449  0.68191571197120
 6 -4.29484709000900 -0.71555217561756  0.84953685648565
 6 -2.98719968116812 -0.41608688078808  1.22184762596260
 6 -3.00206049524953  1.13690482298230  1.65208801520152
 6 -4.31330941764176  1.47001738213821  1.07793405460546
 6 -2.82479027002700  1.39506599389939  3.12325585168517
 6 -1.95073935483548 -0.66202021212121  0.01120044584458
 6 -0.49563781778178 -0.42992122352235  0.48102668556856
 6  0.51993137153715 -0.58456188828883 -0.72059371117112
 8  0.14086463616362 -0.86745814961496 -1.87859714001400
 8  1.79476650165017 -0.30186509330933 -0.35755997609761
 7 -7.14101170967097  2.60255166246625  0.45338049484948
 6 -6.00176730773077  3.23438439233923  0.80842882688269
 6 -6.38953694339434  4.69208983938394  0.91238900340034
 6 -7.79887048244824  4.78107799449945  0.49183609060906
 6 -8.17639819301930  3.41010130143014  0.15684602380238
 6 -5.49974575577558  5.77593868516852  1.12873939913991
 6 -8.51225043744375  6.09455452345235  0.28475849774978
 6 -8.11094029182918  7.27652373667367 -0.08213247554755
 7 -9.07273230893089  0.57267374567457 -0.47318902420242
 6 -9.77353901290129  1.83817450005000 -0.59438456265627
 6 -11.17544228712871  1.50004099449945 -0.98761351095109
 6 -11.22947146784678  0.10847472477248 -1.27559682588259
 6 -9.82099198289829 -0.44313280138014 -0.88487779067907
 6 -12.25750399249925  2.36892917381738 -1.34773530443044
 6 -12.31670171587159 -0.76667772997300 -1.79195437263726
 6 -12.29142547454746 -1.01290517571757 -3.25808391379138
 7 -7.18349460156016 -1.41069043064306 -0.05486860556056
 6 -8.18379360166017 -2.30657659715972 -0.49632743864386
 6 -7.69655732323232 -3.67938212111211 -0.50050847984798
 6 -6.39227474947495 -3.57399171467147 -0.15120761286129
 6 -6.08374315251525 -2.25834198869887  0.17521914331433
 6 -8.48550889558956 -4.91198401730173 -0.85304485148515
 6 -5.27462400010001 -4.41002698799880  0.18219671957196
 8 -5.16588795059506 -5.63000565416542  0.17564359915992
 6 -4.09726313631363 -3.37773070717072  0.64523541554155
 6 -3.45148951315132 -3.69649573417342  1.96715789548955
 8 -3.68427208180818 -3.09105233803380  2.94916863216322
 8 -2.65782713061306 -4.84615276777678  1.75808389638964
 6 -1.99216185468547 -5.25674614391439  2.96270760776078
 6  2.77413118971897 -0.44793405110511 -1.37094246914691
 6  4.06048937133713 -0.31154500390039 -0.57355988468847
 6  5.01955556295630  0.53428675317532 -0.89578947914792
 6  4.99522693929393  1.46279081538154 -1.97450454155416
 6  6.27598405600560  0.46792559945995 -0.08156484268427
 6  7.51659939883988  0.06679479757976 -0.92232190089009
 6  8.82680176257626  0.01115138163816 -0.03006560076008
 6  10.07516840984098 -0.48223532183218 -0.84264065846585
 6  9.87955514171417 -1.92634196909691 -1.23578524002400
 6  11.27404852195220 -0.16909780038004  0.05007520622062
 6  12.55886305530553 -0.37329384528453 -0.69614015381538
 6  13.86937262506251  0.03279651645165  0.13300051305131
 6  15.31540688468847 -0.13003561526153 -0.61700475077508
 6  15.63849795199520 -1.66419920572057 -0.98976625642564
 6  16.31366462046205  0.42162654875488  0.45440462516252
 6  17.75900160446045  0.39107723352335 -0.19678795869587
 6  18.72504790429043  1.06297814461446  0.75893825552555
 6  20.16489416921692  1.15621136573657  0.32540214381438
 6  20.28061829072907  1.82221786978698 -1.06374219561956
 6  21.10335820992099  1.75636000540054  1.33908060966097
 1 -3.96680693919392  3.58282666436644  1.28520304130413
 1 -9.99729348104811  3.79653723762376 -0.54596889948995
 1 -10.19785904770477 -2.54081413611361 -1.13751729922992
 1 -2.43455214591459 -1.06610627432743  1.92736997559756
 1 -2.27925756375638  1.41260974957496  1.09786415291529
 1 -1.88846256955696  1.16858234723472  3.46128634203420
 1 -3.02808759495950  2.48562801940194  3.24516908440844
 1 -3.57659864106411  0.73978834653465  3.52622650715072
 1 -1.94524705160516 -1.60322624302430 -0.31018600460046
 1 -2.30964516671667  0.18890098139814 -0.59215431703170
 1 -0.21247834183418  0.51541946544654  0.86750900280028
 1 -0.41274722842284 -1.18374134953495  1.20145302120212
 1 -4.96354852255226  6.18323349844985  0.25745752795280
 1 -5.90359502980298  6.63471327012701  1.75939062826283
 1 -4.61965519431943  5.43524869626963  1.73662734143414
 1 -9.74964246314631  5.72002493859386  0.42007985248525
 1 -8.72945358575857  8.11610019951995 -0.06239564626463
 1 -7.11256629322932  7.63565413461346  0.23489901930193
 1 -12.08827424022402  3.17669497479748 -2.11461776017602
 1 -13.15463067656766  1.95004064216422 -1.64294781848185
 1 -12.50714767616762  3.12192527792779 -0.40190168816882
 1 -12.38801132923292 -1.79537193539354 -1.22104231213121
 1 -13.18734473807381 -0.27748156115612 -1.54061141814182
 1 -13.30450091629163 -1.36678791799180 -3.64446744444444
 1 -12.10652082608261 -0.13042176807681 -3.92524009900990
 1 -11.33853720132013 -1.78772171617162 -3.56610572607261
 1 -8.85404630053005 -4.98040088838884 -2.14478205960596
 1 -8.01448514951495 -5.91028113631363 -0.49547377547755
 1 -9.68583074887489 -4.80350713771377 -0.33712196839684
 1 -3.43962409440944 -3.54045563006301 -0.21084773777378
 1 -1.18535962596260 -4.52986136343634  3.26659334633463
 1 -2.62585777317732 -5.51603224562456  3.81532875497550
 1 -1.46087751425142 -6.27371154825483  2.42735943884389
 1  2.49136380748075 -1.40664035393539 -1.88289236553655
 1  2.80677237743774  0.40535345374537 -2.21427344714471
 1  3.97803702800280 -0.87308531473147  0.33086546274628
 1  3.88199913621362  1.70848194449445 -2.31749509180918
 1  5.41265456385639  2.42066645684568 -1.83769812441244
 1  5.57962328512851  1.17423775397540 -2.86010731003100
 1  6.52826584988499  1.38973520122012  0.08282578027803
 1  6.21277462546255 -0.08049129802980  0.77317832493249
 1  7.20387412951295 -1.08651972367237 -1.22606673537354
 1  7.57121865286529  0.52706958345835 -1.83334348124812
 1  8.83381947914791  0.98084070057006  0.43032699519952
 1  8.52386020882088 -0.67194554995500  0.79322394099410
 1  10.29271098259826  0.22030679697970 -1.58561239183918
 1  9.06377287368737 -2.05058210251025 -1.87312227342734
 1  10.62105519021902 -2.35171168376838 -1.98946513251325
 1  9.67307478107811 -2.66695831843184 -0.35367745844584
 1  11.32718748094809  0.75805021252125  0.64655661906191
 1  11.20669107880788 -1.02444478257826  0.87422489548955
 1  12.59665540124012 -1.42317917931793 -1.22881121602160
 1  12.77857676367637  0.38101758075808 -1.60664902870287
 1  13.87951945514551  1.04666792229223  0.39993665416542
 1  13.92754884518452 -0.51929436673667  1.05930109980998
 1  15.41597398949895  0.44906476687669 -1.66402606210621
 1  15.55188718971897 -2.51297802370237 -0.14464206180618
 1  15.15347287908791 -1.94869306290629 -1.93246096649665
 1  16.68118617721773 -1.59986391499150 -1.42708481728173
 1  15.86848205790579  1.36129520222022  0.62013543454345
 1  16.46478818081808 -0.10834723042304  1.25012794449445
 1  18.24378357025703 -0.64276123992399 -0.09691569916992
 1  17.90834091529153  0.84991625012501 -1.16997048094810
 1  18.49407809060906  2.21739363896390  1.02284738563856
 1  18.53241951935193  0.61580519181918  1.71941829342934
 1  20.55702576927693  0.13124956075608  0.08683643404340
 1  19.93967080038004  2.92949193409341 -1.01460172967297
 1  21.39553566746675  1.76021189908991 -1.34471572557256
 1  19.80138097129713  1.17637904020402 -1.99264968826883
 1  21.06237625292529  1.23806311011101  2.18450789238924
 1  22.10168480898090  1.93644217541754  1.11770603680368
 1  20.61167369997000  2.86563023922392  1.52966889808981

