%nproc=4
%Mem=2GB
# td=(NStates=1) CAM-B3LYP/6-31G(d,p) 

TD

0 1
12 -7.14934660396040  0.63328156885689  0.01480952955296
 6 -4.82138101920192 -1.90702281358136  0.61205684058406
 6 -4.79825913221322  2.85775010231023  1.21393485068507
 6 -9.40055464426443  3.11041344074407 -0.33322465546555
 6 -9.51712273987399 -1.72743291829183 -0.91501961696170
 7 -5.05273805540554  0.52137339783978  0.67873539393939
 6 -4.30738834413441 -0.63970459085909  0.83815571837184
 6 -2.89022998419842 -0.28761403350335  1.19748518971897
 6 -2.99688997819782  1.06047718021802  1.69430223662366
 6 -4.39543763046305  1.53390377077708  1.23340960216022
 6 -2.94399219021902  1.23237972527253  3.33955748184818
 6 -1.99997427832783 -0.60361437153715 -0.04392506670667
 6 -0.53703195719572 -0.47173540494049  0.44011259415942
 6  0.44744412281228 -0.65330876297630 -0.74779643144314
 8  0.17994854455446 -1.10612201600160 -1.83041232153215
 8  1.71528855385539 -0.48925383218322 -0.34405862596260
 7 -7.12609021752175  2.62901430873087  0.42197735453545
 6 -6.06939407040704  3.39202015591559  0.79418740274027
 6 -6.46592458215822  4.78080871127113  0.89644740924092
 6 -7.78651924732473  4.80067995469547  0.38633554055406
 6 -8.16757731093109  3.52598288958896  0.09208954815482
 6 -5.55806158735874  5.87103819511951  1.19643616881688
 6 -8.58677789018902  6.01304637263726  0.29056907880788
 6 -8.24580377817782  7.28489457375738 -0.01641590389039
 7 -9.05822085778578  0.67552403070307 -0.51802350765076
 6 -9.83976563556356  1.77674835743574 -0.65333045724572
 6 -11.27146188908891  1.44100509090909 -0.96554130373037
 6 -11.26164468516852  0.01542541984198 -1.09642890909091
 6 -9.87840772447245 -0.33666215431543 -0.83439274217422
 6 -12.47791603370337  2.35026730763076 -0.97768829972997
 6 -12.34061410711071 -0.92020308250825 -1.56490166736674
 6 -12.36135246724672 -1.04945883108311 -3.15932403780378
 7 -7.20528678077808 -1.35047440904090 -0.16818993769377
 6 -8.24751997429743 -2.23415935543554 -0.55682348824882
 6 -7.74821248874887 -3.57635181808181 -0.51535996499650
 6 -6.49667518951895 -3.48627294279428 -0.18625111721172
 6 -6.18047282548255 -2.12445860036004  0.04668629002900
 6 -8.58750909560956 -4.83186600550055 -0.90841038803880
 6 -5.30088662636264 -4.38203418871887  0.11117961786179
 8 -5.16599796159616 -5.54079673327333  0.01919795459546
 6 -4.19887329732973 -3.27737067116712  0.47889878187819
 6 -3.53038740294029 -3.69563564816482  1.82247342704270
 8 -3.72432608720872 -3.24646787958796  2.94979869516952
 8 -2.57863921182118 -4.62839099159916  1.60138822682268
 6 -1.95086772527253 -5.18385885518552  2.78716005300530
 6  2.80792456905691 -0.73100235793579 -1.25109048394839
 6  4.05738906130613 -0.46611046044604 -0.61713424212421
 6  5.03079668706871  0.30632395689569 -0.97686758695870
 6  5.21867928452845  1.13801833813381 -2.23106019711971
 6  6.31213767136714  0.26405521242124 -0.07305399159916
 6  7.60982872177218 -0.22735461736174 -0.85787545624562
 6  8.85709479187919 -0.14160389388939 -0.04527712191219
 6  10.14645553855386 -0.56620371867187 -0.64734112851285
 6  10.17033421962196 -1.99791912681268 -1.14342600410041
 6  11.36886800390039 -0.25519641024102  0.25781598029803
 6  12.62784995399540 -0.37840435633563 -0.52148268806881
 6  13.97977366516652  0.11151438823882  0.24441165416542
 6  15.34935027902790 -0.12098471017102 -0.47419046934693
 6  15.58838294049405 -1.64697748354835 -0.80926820662066
 6  16.39622287628763  0.41688607470747  0.40344952965297
 6  17.81728743304330  0.44791291709171 -0.19475775567557
 6  18.80708610811081  1.26443829062906  0.74728709040904
 6  20.24948262806281  1.38702444704470  0.23078268186819
 6  20.33008323722372  2.04075972397240 -1.22512833423342
 6  21.28082595669567  1.90613498289829  1.22761946354635
 1 -4.22664292279228  3.59204758645865  1.55615013601360
 1 -10.20631438313831  3.74881246514652 -0.64319862246225
 1 -10.31667092889289 -2.40266032073207 -1.26028957645765
 1 -2.34412310301030 -0.95797546124612  1.97338457705771
 1 -2.33397303530353  1.73715220382038  1.09907427392739
 1 -2.05313903720372  0.87958344734473  3.66587680108011
 1 -2.87466225242524  2.25920537713771  3.69750431793179
 1 -3.84112509370937  0.50680504820482  3.56862074657466
 1 -2.43472599949995 -1.62357827822782 -0.47765275127513
 1 -2.23116731893189 -0.00346825552555 -0.81905700730073
 1 -0.22454954895490  0.57343526702670  0.83813606550655
 1 -0.24126007970797 -1.29610258565857  1.37706058195820
 1 -4.87274944264426  6.27305248034803  0.41781356355636
 1 -6.20425509580958  6.60584038283828  1.52350703990399
 1 -5.05488871767177  5.55484065546555  2.15196887558756
 1 -9.69852735163516  5.95425836193619  0.50226807130713
 1 -8.99028966936694  7.98806739623962  0.26891748504850
 1 -7.27914295089509  7.56177674687469 -0.56131060166017
 1 -12.46822223502350  2.93034033933393 -1.95182148054806
 1 -13.37768298179818  1.62386802490249 -1.13321684538454
 1 -12.57990495189519  3.10681376677668 -0.10012151015102
 1 -12.29724225232523 -1.95637803600360 -1.20878108600860
 1 -13.31809781338134 -0.37592140514051 -1.10561791879188
 1 -13.28183865006500 -1.64251549074907 -3.68151114881488
 1 -12.41252142614261  0.05313658775878 -3.80662823782378
 1 -11.41106445404541 -1.45346829082908 -3.45955507100710
 1 -9.04852574847485 -4.89102195049505 -1.79846742814281
 1 -7.96174987598760 -5.79848995719572 -0.62201642974297
 1 -9.44134630043004 -4.96938372537254 -0.10405866206621
 1 -3.28498863086309 -3.27757934243424 -0.38658531153115
 1 -1.40376146614661 -4.49657803510351  3.36180286728673
 1 -2.69390457785779 -5.62223286568657  3.41268849094910
 1 -1.32370379687969 -5.83028720582058  2.37810451335134
 1  2.81199587068707 -1.67901759165917 -1.76190026632663
 1  2.71634333453345 -0.10695777737774 -2.25955797559756
 1  4.10630985528553 -0.91665967216722  0.34656703290329
 1  4.30368130443044  0.88208930523052 -3.07885122742274
 1  5.51918521692169  2.31053544374437 -2.33324767936794
 1  5.93876919971997  0.49984031423142 -2.87626892619262
 1  6.61904492779278  1.25484171187119  0.06825432313231
 1  5.90888423642364 -0.25378862776278  0.91101210831083
 1  7.58751249334933 -1.36448752045205 -1.15432956165617
 1  7.68798032903290  0.23298017451745 -1.93796394329433
 1  9.03084918211821  0.94324694119412  0.28914287678768
 1  8.73408123092309 -0.87520587598760  0.81847646624662
 1  10.33070478197820  0.12996776307631 -1.50520435103510
 1  9.07243373977398 -2.15366241054105 -1.50567552875288
 1  11.00367345204520 -2.18735524812481 -1.90534672067207
 1  10.45745321892189 -2.66950857345735 -0.37920001070107
 1  11.53889865206521  0.77632203970397  0.60818278167817
 1  11.44591500120012 -0.75169750785078  1.13475094809481
 1  12.80968670437044 -1.34399126052605 -1.04049238413841
 1  12.76871577757776  0.31661114011401 -1.29885824962496
 1  13.76840834403440  1.28050130563056  0.34909156965697
 1  13.80808689898990 -0.28297073437344  1.17674284398440
 1  15.38917130923092  0.45083494389439 -1.37278693819382
 1  15.80203220422042 -2.29508623452345  0.07757015941594
 1  14.74549208100810 -2.02685087868787 -1.39998771917192
 1  16.54953301190119 -1.72786671527153 -1.18313042184218
 1  16.39228443814381  1.48468754145415  0.63564698569857
 1  16.48069977197720 -0.13360975667567  1.35122805450545
 1  18.46994618651865 -0.50438740254025 -0.31910791839184
 1  17.60901098229823  0.85778703720372 -1.12406589048905
 1  18.26399508230823  2.29496139573957  0.71807690859086
 1  18.89019529692969  0.77674128542854  1.59133548514852
 1  20.46790685738574  0.20860729652965 -0.06151840144014
 1  20.17736456975698  3.06914589948995 -1.19059932943294
 1  21.31918803270327  2.13918979687969 -1.81087234123412
 1  19.54465529872987  1.46548795109511 -1.85462588588859
 1  21.20309032433243  1.23700300410041  2.22479192079208
 1  22.16942158265827  1.89905843704370  0.95495976217622
 1  21.02228476107611  2.98641231743174  1.38206413761376

