%nproc=4
%Mem=2GB
# td=(NStates=1) CAM-B3LYP/6-31G(d,p) 

TD

0 1
12 -7.18605027432743  0.48313655435544  0.07480552915292
 6 -4.95186406750675 -1.92026413771377  0.50553618851885
 6 -4.88112741904190  2.74577890519052  1.07349080628063
 6 -9.46671125992599  3.03920632003200 -0.26150748374837
 6 -9.47987901550155 -1.82399257425743 -0.90547866286629
 7 -5.11124390599060  0.36916817731773  0.67623514391439
 6 -4.31882948824882 -0.62473309370937  0.75090699349935
 6 -2.89142010321032 -0.38069334143414  1.25127056825683
 6 -3.02182247144715  1.10764189668967  1.73925673207321
 6 -4.39994808150815  1.47108748914892  1.16549281048105
 6 -3.09971776277628  1.13348983628363  3.31558508460846
 6 -1.93744802570257 -0.55418942904290  0.12296162196220
 6 -0.44535278927893 -0.28533676507651  0.63153173607361
 6  0.43953333173317 -0.46994042614261 -0.56783843564356
 8  0.16914746444644 -0.72815421922192 -1.67523680398040
 8  1.76774379937994 -0.26970187698770 -0.20581480158016
 7 -7.21067867636764  2.60352175947595  0.36317147394739
 6 -6.15693282428243  3.37571852575258  0.78856684068407
 6 -6.47952594229423  4.85826645704570  0.86214397889789
 6 -7.78401899729973  4.84093398009801  0.42502940994099
 6 -8.24988554175417  3.49050934223422  0.15378571777178
 6 -5.52937871907191  5.96260735203520  1.31696822202220
 6 -8.63463267566757  6.03641870987099  0.24699472137214
 6 -8.12753195099510  7.20637672197220 -0.08857311961196
 7 -9.15252028772877  0.58625510381038 -0.51164286958696
 6 -9.93469512851285  1.79095977857786 -0.62717784198420
 6 -11.18207295019502  1.38431942234223 -1.08393314291429
 6 -11.25353387408741  0.05193907120712 -1.27442670887089
 6 -9.94762464616462 -0.45322381048105 -0.93986328922892
 6 -12.25414365646565  2.38580086098610 -1.30300083098310
 6 -12.24051409710971 -0.88085914811481 -1.77672284948495
 6 -12.34007033903390 -1.25842972817282 -3.31630973637364
 7 -7.30166641874187 -1.44240360196020 -0.08965208390839
 6 -8.19708493079308 -2.32609854935494 -0.57685549144914
 6 -7.71759942744274 -3.71057524042404 -0.45559398839884
 6 -6.47425294729473 -3.57708202370237  0.00885839373937
 6 -6.18765354355436 -2.19648580308031  0.12001362276228
 6 -8.47852819751975 -4.81851467036704 -0.83008255525553
 6 -5.23977051475148 -4.30395638093809  0.18141664156416
 8 -5.16316767856786 -5.54542719631963 -0.03325729092909
 6 -4.11822523252325 -3.29504243834383  0.52109300130013
 6 -3.59312367656766 -3.70472655725573  1.91592277197720
 8 -3.77671132573257 -3.12664589738974  2.96858057335734
 8 -2.64458580648065 -4.68651680418042  1.75611369936994
 6 -2.20781341984198 -5.30235070437044  2.87936927392739
 6  2.79163293989399 -0.47976723442344 -1.21572694759476
 6  4.10529385178518 -0.41966581598160 -0.62868539723972
 6  5.07498110551055  0.43889721422142 -0.95807570777078
 6  4.98972638923892  1.48720325662566 -1.97442453355335
 6  6.42197865546555  0.51946075297530 -0.15599228542854
 6  7.59383712261226  0.00885900400040 -0.93231289999000
 6  8.92393147554755  0.08049831633163 -0.05991858605861
 6  10.23144403740374 -0.44377147544754 -0.88037443184318
 6  10.15406259245925 -1.93131246614661 -1.19596125762576
 6  11.42307342444244 -0.19546043664366 -0.02938273957396
 6  12.79264643364336 -0.49633614951495 -0.71581212101210
 6  13.97060274807481 -0.09189595279528  0.20261747474747
 6  15.39564490849085 -0.31572418411841 -0.60127317761776
 6  15.56777087928793 -1.67823060886089 -0.90445772557256
 6  16.36831008500850  0.34183856995700  0.33600278497850
 6  17.95785148944895  0.25899402520252 -0.21132941284128
 6  18.82556795629563  1.11556340314031  0.72243460516052
 6  20.34864254405441  1.26131187578758  0.21367097069707
 6  20.43586381528153  1.98994464246425 -1.14001982338234
 6  21.29394726882688  1.74970934033403  1.22228893049305
 1 -4.25937619611961  3.57844622632263  1.70720524152415
 1 -10.09107285898590  3.85438302220222 -0.26010031263126
 1 -10.29207846964696 -2.45266532123212 -1.22121566906691
 1 -2.61302999369937 -1.08405806950695  2.01947918651865
 1 -2.32562220022002  1.65667415601560  1.34309867636764
 1 -2.15424914821482  0.89751524052405  3.73549376277628
 1 -3.49966475267527  2.19944940154015  3.52541710921092
 1 -3.98143912511251  0.44203857155716  3.65016890139014
 1 -1.98508103500350 -1.49146506690669 -0.30546553255326
 1 -2.22636683888389  0.01547363866387 -0.64090919251925
 1 -0.39987708170817  0.80589851335134  0.93063531543154
 1 -0.16989294299430 -0.85437841324132  1.53143601950195
 1 -5.05610777847785  6.40623579867987  0.50898268046805
 1 -6.30300497079708  6.66701650045004  1.87138182738274
 1 -4.61703493229323  5.80741591299130  1.81193487218722
 1 -9.63524102300230  6.20967390349035  0.59662750725073
 1 -8.80072071247125  8.04608319781978 -0.04881428812881
 1 -7.12787782438244  7.16849741894189  0.01967749714971
 1 -12.00122553535354  3.31260856615662 -2.00664696309631
 1 -13.14417963146314  1.84421005910591 -1.69906343004300
 1 -12.47086404780478  2.55572865826583  0.00116861886189
 1 -12.12356488458846 -1.89324172237224 -1.34706491439144
 1 -13.23887989158916 -0.47139095209521 -1.54023138013801
 1 -13.21929239543954 -1.97322856205621 -3.32591558925893
 1 -12.67871804580458 -0.41103982988299 -3.98578615361536
 1 -11.32596594419442 -1.55884882888289 -3.57845696119612
 1 -8.79732062796280 -4.71280412871287 -2.08799638103810
 1 -7.85768946994699 -5.76655676387639 -0.75981020912091
 1 -9.49309147494749 -4.97807459445945 -0.26030428662866
 1 -3.36827695969597 -3.61503308780878 -0.14646129912991
 1 -2.06966805680568 -4.47873625092509  3.80152683968397
 1 -2.87759294669467 -6.00116075847585  3.55119234133413
 1 -1.32098352485249 -5.94100827792779  2.63704040694069
 1  2.52826749784978 -1.69510920082008 -1.55804988128813
 1  2.58005970617062  0.20309322772277 -2.01814383418342
 1  4.32577180148015 -1.22313031923192  0.27088946514651
 1  4.00337127342734  1.25658675497550 -2.56430977327733
 1  5.12386568496850  2.51055544574457 -1.67453180778078
 1  5.91141646444644  1.31583191339134 -2.64184548384839
 1  6.42406542984298  1.63870009770977  0.09524702240224
 1  6.21495484348435 -0.14424767366737  0.87712871997200
 1  7.66281002310231 -0.96230730243024 -1.29263339203920
 1  7.63060459145915  0.55271214771477 -1.73989413631363
 1  9.08681477867787  0.98035065156516  0.35572953545355
 1  8.80163798659866 -0.58505686108611  0.87893251185118
 1  10.58518022952295  0.12207697399740 -1.86484031463146
 1  9.12475897229723 -1.90738778307831 -1.76268122932293
 1  10.94069715441544 -2.52036854945495 -1.80864705070507
 1  9.87659513311331 -2.59294091669167 -0.30286237693769
 1  11.51420618281828  1.03694810231023  0.00748271167117
 1  11.28558896859686 -0.69637197529753  0.91748922192219
 1  12.77405314101410 -1.53584044544454 -1.07033536843684
 1  12.86246515251525  0.06899637863786 -1.56062442624262
 1  13.71725322852285  0.93610686618662  0.13212987348735
 1  14.09558564886489 -0.63546598389839  1.15546071577158
 1  15.40068246034603  0.23599345974597 -1.63511317081708
 1  15.45666766776678 -2.16737346324632  0.14377678007801
 1  14.84106163796380 -2.20304849844984 -1.49842756315632
 1  16.51846990559056 -1.46026995559556 -1.32713482228223
 1  15.97409261896190  1.33855292799280  0.70998441944194
 1  16.43474517651765 -0.31354775047505  1.09451238293829
 1  18.39030822272228 -0.65383234703470 -0.29485549314932
 1  17.87969805100510  0.51728298679868 -1.21269475337534
 1  18.53393207600760  2.25746764636464  0.81125622652265
 1  18.86657293469347  0.69503311461146  1.59587593919392
 1  20.53900396709671  0.10110654645465  0.10754850525052
 1  20.11038787208721  3.01841082598260 -0.64838510801080
 1  21.43730984488449  1.90129600750075 -1.59628088208821
 1  19.69503033623362  1.66899830213021 -1.80196061936194
 1  21.41520153545354  0.86640594439444  2.12234167576758
 1  22.32381702220222  1.96108463966397  0.67970223642364
 1  20.96676920952095  2.63005668186819  1.89141507270727

