%nproc=4
%Mem=2GB
# td=(NStates=1) CAM-B3LYP/6-31G(d,p) 

TD

0 1
12 -7.09107077637764  0.54666290699070  0.08020606920692
 6 -4.94718359945995 -2.03530564186419  0.57133276817682
 6 -4.74404371067107  2.80239456675668  1.22297575477548
 6 -9.27798238703870  3.12948534793479 -0.45199653265327
 6 -9.50887191479148 -1.75173534853485 -1.05072318731873
 7 -5.13589637123712  0.43907516801680  0.77690521092109
 6 -4.34582218751875 -0.77133775417542  0.91324322712271
 6 -2.94585554675468 -0.49941521362136  1.23892933413341
 6 -2.95447573677368  1.09935106760676  1.67841064746475
 6 -4.43011109780978  1.51556193659366  1.20963722492249
 6 -2.83529132013201  1.30555704300430  3.15892941904190
 6 -1.87590187108711 -0.74501851195120  0.16399572537254
 6 -0.43014126812681 -0.70175840724072  0.65228381128113
 6  0.57383676207621 -0.81068450055005 -0.49984163596360
 8  0.23472402210221 -1.06312771657166 -1.64676395669567
 8  1.71970899589959 -0.62410731753175 -0.07533175327533
 7 -7.13110071857186  2.62605401270127  0.38355351215122
 6 -6.06504363536354  3.36859781368137  0.88077606160616
 6 -6.39062705240524  4.75606623702370  0.95525328982898
 6 -7.66910750615062  4.81140102680268  0.49385629262926
 6 -8.00991154435443  3.49832012331233 -0.06413607440744
 6 -5.50066584778478  5.92720381168117  1.32778930413041
 6 -8.51654086648665  6.07562263026303  0.44223424532453
 6 -8.01685088288829  7.26451253555356  0.13104884258426
 7 -9.07429246494649  0.67056353465347 -0.49794149944994
 6 -9.78319997899790  1.75085576817682 -0.75823094729473
 6 -11.07954269716972  1.48205919631963 -1.17320206980698
 6 -11.09927844854485  0.10433431073107 -1.39130839703970
 6 -9.86895677937794 -0.41355984408441 -1.01801110401040
 6 -12.15559380148015  2.59663194409441 -1.41403193409341
 6 -12.35869591529153 -0.68307937013701 -1.90434561176118
 6 -12.24102043404340 -0.81536542174217 -3.42018012341234
 7 -7.17158341044104 -1.39065842744274 -0.17958107680768
 6 -8.27978320062006 -2.16974291379138 -0.57023482938294
 6 -7.89072674017402 -3.59479366226623 -0.52501093009301
 6 -6.57317283928393 -3.52439675517552 -0.11201369346935
 6 -6.20535531373137 -2.23521967646765  0.02367398879888
 6 -8.64854519921992 -4.82054487338734 -0.82923247024702
 6 -5.42441897959796 -4.33152913821382  0.28069656955696
 8 -5.31423278507851 -5.60778343194319  0.32856889168917
 6 -4.26945035503550 -3.37401033513351  0.64187507950795
 6 -3.67273163736374 -3.81394747934793  1.92454363406341
 8 -3.82256591119112 -3.20938417121712  2.96138985428543
 8 -2.98435978387839 -4.96736488898890  1.81033912191219
 6 -2.39042168066807 -5.28826929622962  3.06962829982998
 6  2.88059183578358 -0.83926318401840 -1.07314268916892
 6  4.22678600100010 -0.64445829522952 -0.50158268696870
 6  5.02856646404640  0.33111643614361 -0.88372827302730
 6  4.95503291989199  1.21137567386739 -2.09530662176218
 6  6.45492194979498  0.45350415731573 -0.12664935113511
 6  7.61211895079508 -0.01721360326033 -0.89359902860286
 6  8.97407649004900  0.00415068156816 -0.18878147234724
 6  10.16230712371237 -0.40856795509551 -1.00239663406341
 6  10.01928911511151 -1.86904623952395 -1.35984764626463
 6  11.50040115721572 -0.18945983658366 -0.10358015931593
 6  12.78690585958596 -0.34394090999100 -0.76479701950195
 6  13.95678136593659 -0.14022078527853  0.09816702970297
 6  15.33697904190419 -0.27855046674667 -0.58126117641764
 6  15.68702280448045 -1.69609239503950 -0.88019529932993
 6  16.38656191019102  0.43149753585359  0.31794097879788
 6  17.79402510681068  0.62520064586459 -0.41502978287829
 6  18.75799119861986  1.28217006380638  0.57068943064306
 6  20.16564424422442  1.50988673327333  0.18866847044704
 6  20.25905613451345  2.41819746774677 -0.96869269066907
 6  21.03308118221822  1.91255562496250  1.34889159075908
 1 -4.17870812931293  3.40383876557656  1.52600712171217
 1 -10.14572832453245  3.98340592449245 -0.57030133273327
 1 -10.22671193299330 -2.44303435813581 -1.38060160766077
 1 -2.61409009970997 -1.22728239193919  2.13284052265226
 1 -2.09408904690469  1.63971245984598  1.31447581408141
 1 -1.79170289358936  0.99281477047705  3.56400661406141
 1 -3.06197098329833  2.37486694329433  3.49573414091409
 1 -3.78441942314231  0.72360672837284  3.78952283678368
 1 -1.78226075297530 -1.74669058945895 -0.32875786178618
 1 -2.24263846604660 -0.06770467916792 -0.59641474307431
 1 -0.11948904290429  0.31739966346635  1.11861411331133
 1 -0.12969892359236 -1.58659163456346  1.31067394329433
 1 -5.21664383208321  6.31485666076608  0.40816259845985
 1 -6.36446111641164  6.59071887068707  1.59828451765177
 1 -4.54311754055406  5.56952212361236  1.97240091879188
 1 -9.53565106400640  5.82426536263626  0.42121996649665
 1 -8.83368400880088  7.94911350085009  0.02429302260226
 1 -6.81521655825583  7.25010557975798 -0.10268473907391
 1 -11.86311172397240  2.98385569086909 -2.43801009940994
 1 -13.32592780628063  1.96957259535954 -1.37727125082508
 1 -12.05275223662366  3.19144222962296 -0.43572507050705
 1 -12.18835136323632 -1.55632803100310 -1.44290449834984
 1 -13.27379338293829 -0.28875268826883 -1.56959431643164
 1 -13.03475394159416 -1.40315155435544 -3.96660965866587
 1 -12.46951712571257  0.19382065616562 -3.60867844284428
 1 -11.21013436103610 -1.16939988398840 -3.65563467896790
 1 -8.79814070997100 -4.69238208650865 -1.89503708510851
 1 -8.08227192819282 -5.70925103330333 -0.64206843494349
 1 -9.56990915671567 -4.63725051205120 -0.37399565576558
 1 -3.35435556755676 -3.47727931243124 -0.06563321632163
 1 -1.69710080008001 -4.62407078437844  3.41257794479448
 1 -3.04312950035004 -5.50893153555356  3.76358358045805
 1 -1.86012743924392 -6.05092927002700  2.91372807570757
 1  2.69525419651965 -1.89587927782778 -1.54340841714171
 1  2.46941864206421 -0.21111819341934 -1.97257927772777
 1  4.46062528682868 -1.05999400560056  0.44975735193519
 1  4.08718965526553  1.17261835813581 -2.62286562886289
 1  5.34851815021502  2.19049343954396 -1.75018937353735
 1  5.72350767356736  0.93825415561556 -2.71165246454645
 1  6.86647967126713  1.56203243094309  0.21175867356736
 1  6.54076742474247 -0.02381563046305  0.85128613571357
 1  7.34733847594760 -1.13816488818882 -1.27606173487349
 1  7.55660719171917  0.49954683118312 -1.69625977287729
 1  9.11478757595759  1.06672928942894  0.15831979447945
 1  8.93886170897090 -0.41545990139014  0.81105572417242
 1  10.17687939943994  0.07125189148915 -1.85238906950695
 1  9.02658915531553 -1.94265130943094 -1.73834879607961
 1  10.90799388408841 -2.30726723932393 -1.89886607260726
 1  9.79228670227023 -2.30774239683968 -0.43632572327233
 1  11.63439820202020  0.77612201970197  0.21915387878788
 1  11.44423483318332 -0.86201853995400  0.68822629562956
 1  12.90954669036904 -1.53135999739974 -1.19131746664667
 1  12.75533443944394  0.21160063906391 -1.51888025182518
 1  14.06394789798980  1.02515577107711  0.32177883838384
 1  14.02521861216122 -0.77129956725673  1.00544571427143
 1  15.52828522062206  0.31291115151515 -1.67286694619462
 1  15.50050205120512 -2.28294502040204 -0.02183978157816
 1  14.99230676247625 -2.03387158075808 -1.72716043644364
 1  16.82991104970497 -1.80942487108711 -1.07926003480348
 1  16.03050826052605  1.39221829452945  0.57606102710271
 1  16.58762046404641 -0.22732912861286  1.26248918061806
 1  18.05198439033904 -0.38960592439244 -0.77251325892589
 1  17.59720980218022  1.07623888238824 -1.30645412931293
 1  18.29252793559356  2.09004090369037  1.05883098399840
 1  18.87969424682468  0.60107371867187  1.47573392499250
 1  20.41149121582158  0.46790322612261 -0.32532478207821
 1  19.92178901220122  3.52165115001500 -0.73663393289329
 1  21.31902801670167  2.44394027192719 -1.28826008000800
 1  19.67426826002600  2.23301470377038 -1.95341576487649
 1  20.81508152345235  1.36540584438444  2.29909935153515
 1  22.09678431893189  1.94058258945895  1.04759902610261
 1  20.58839137173717  2.92056573277328  1.61291722292229

