%nproc=4
%Mem=2GB
# td=(NStates=1) CAM-B3LYP/6-31G(d,p) 

TD

0 1
12 -7.15756742604260  0.56899514021402  0.09978802740274
 6 -4.74188306940694 -1.90054216551655  0.47451308620862
 6 -4.79646895319532  2.86468079537954  1.12862631983198
 6 -9.42766735553555  3.00051245064506 -0.40667200020002
 6 -9.40181120872087 -1.86882705770577 -0.84773288828883
 7 -5.05839862146215  0.54899616011601  0.76241376177618
 6 -4.32496010131013 -0.60338095849585  0.79366126892689
 6 -2.93652461366137 -0.36968224032403  1.19636507770777
 6 -3.03432372157216  1.03430456295630  1.75269807620762
 6 -4.40752883958396  1.56501688208821  1.24766102730273
 6 -3.04686247724772  1.16497298459846  3.20801432753275
 6 -1.94135841674167 -0.52493650375037  0.05004433023302
 6 -0.53417167116712 -0.26392462386239  0.43897248014802
 6  0.45926530493049 -0.55900933303330 -0.64248590039004
 8  0.20862141184118 -0.97217862166217 -1.76773605390539
 8  1.80391741674167 -0.28562346914691 -0.25326954705471
 7 -7.21164877337734  2.57358876617662  0.45449060586059
 6 -6.09973710471047  3.30709166306631  0.84178216221622
 6 -6.48672666236624  4.79160979137914  0.95535329982998
 6 -7.80606120152015  4.83849373607361  0.33515042204220
 6 -8.16336688988899  3.44556484778478  0.11635197439744
 6 -5.66049183038304  5.95529662096210  1.42979950515052
 6 -8.61804101650165  6.06379144714471  0.19744976687669
 6 -8.20180937873787  7.30957704200420 -0.09452371467147
 7 -9.03417845354535  0.54824130243024 -0.45142684798480
 6 -9.84715637463746  1.68115879847985 -0.55489061326133
 6 -11.11542628552855  1.43148413881388 -1.14027877747775
 6 -11.12139065976598  0.01157503480348 -1.23716298249825
 6 -9.86444632833283 -0.47422591069107 -0.74262356525653
 6 -12.26931517361736  2.38052033293329 -1.37585811671167
 6 -12.32493253895390 -0.77645870807081 -1.51395657285729
 6 -12.52608894089409 -1.31901578677868 -3.01328943434343
 7 -7.01883813591359 -1.40752011361136 -0.16360947964797
 6 -8.10102532483248 -2.31827776727673 -0.52553035893589
 6 -7.73903157065707 -3.60327451035103 -0.50001843084308
 6 -6.30084560656066 -3.59701401690169 -0.15338783088309
 6 -6.04273905210521 -2.21389754425443  0.07540916231623
 6 -8.55774611931193 -4.82783560246025 -0.80523007000700
 6 -5.13701023872387 -4.36693267856786  0.04534303420342
 8 -5.00746210801080 -5.50748340194019 -0.06656062126213
 6 -3.99762317231723 -3.20081301540154  0.47155804780478
 6 -3.51819618381838 -3.71035712031203  1.85442662236224
 8 -3.75258891349135 -3.09483271607161  2.82459617491749
 8 -2.77894924282428 -4.78714686718672  1.86422451045105
 6 -2.13014565306531 -5.28470894019402  2.99175051205121
 6  2.75775955255526 -0.62590184788479 -1.27841321622162
 6  4.16415973837384 -0.35919976937694 -0.66981951065107
 6  5.07032063946395  0.52245557005701 -1.02595249544954
 6  5.00519793639364  1.39511404770477 -2.20048713981398
 6  6.30983744134413  0.53289209610961 -0.12710939713971
 6  7.51880961986199 -0.09616149804981 -0.85552522122212
 6  8.83624270667067 -0.03414314781478 -0.17876047024702
 6  10.07480837383738 -0.55198229652965 -0.87064345874587
 6  9.97881506770677 -1.97586692159216 -1.26643830533053
 6  11.24509562666267 -0.21896278687869  0.00379057775778
 6  12.63129029802980 -0.46637315321532 -0.59603014281428
 6  13.93355904370437 -0.08771553475348  0.16366357935794
 6  15.26537188118812 -0.12374498619862 -0.62251530183018
 6  15.53872797499750 -1.58148093389339 -1.01043832363236
 6  16.36949020302030  0.49769415551555  0.32479166386639
 6  17.79308501280128  0.48662678847885 -0.21693997389739
 6  18.82832823232323  1.13307515431543  0.69556191789179
 6  20.27458513831383  1.03703944854485  0.39927953155316
 6  20.53405363426343  1.84280992899290 -1.01749757115712
 6  21.10367824192419  1.71596596599660  1.54426112771277
 1 -4.11825208370837  3.54805318701870  1.44629915091509
 1 -10.01629538123812  3.92509009290929 -0.54558886148615
 1 -10.43654291609161 -2.39745980068007 -1.02131567906791
 1 -2.60472916361636 -0.92760242394239  2.04737197579758
 1 -2.40078971697170  1.69001749034903  1.24501886838684
 1 -2.15317904120412  0.57242273127313  3.58755896929693
 1 -3.28018280448045  2.29296875347535  3.56504107160716
 1 -3.87292827402740  0.66816118381838  3.62097598209821
 1 -2.15897842474247 -1.44721064146415 -0.46318130413041
 1 -2.39794399659966  0.14854694599460 -0.66300140174017
 1 -0.30319741374137  0.84727265076508  0.79868212011201
 1 -0.25052100580058 -1.02889586498650  1.24431730763076
 1 -5.05986815451545  6.39585476057606  0.70999278147815
 1 -6.18469313961396  6.68920871967197  1.75514020322032
 1 -5.04840806960696  5.43721889328933  2.20053373207321
 1 -9.65815331423142  5.84207714381438  0.39498734323432
 1 -8.81530217061706  8.26144473397340 -0.19530893759376
 1 -7.27942297889789  7.54051462066207 -0.39536400700070
 1 -12.07597301010101  3.04133143844384 -2.07970426882688
 1 -13.15835104860486  1.77020265836584 -1.40359388308831
 1 -12.31598856025603  3.14829791519152 -0.56800829882988
 1 -12.34396692479248 -1.68487088528853 -0.83692390029003
 1 -13.22068807240724 -0.23311712471247 -1.09618697569757
 1 -13.45892635883588 -1.76969820902090 -3.18296129382938
 1 -12.19084925892589 -0.52316104200420 -3.61136871187119
 1 -11.73399674727473 -1.94331727572757 -3.50687980348035
 1 -8.71142203810381 -4.76708955725573 -2.00141772317232
 1 -8.05125882688269 -5.73588369656966 -0.35730995909591
 1 -9.47972013781378 -4.59319610661066 -0.23464172037204
 1 -3.18733886588659 -3.38323990849085 -0.37092374537454
 1 -1.67956904690469 -4.39281765906591  3.68328501550155
 1 -3.10052523992399 -5.51120176257626  3.44623184528453
 1 -1.62979440594059 -6.06316049314932  2.65613231613161
 1  2.65353002410241 -1.56577626752675 -1.80087416371637
 1  2.67971967216722  0.09451236963696 -2.16951897169717
 1  4.55363458775878 -0.93863186938694  0.14516689288929
 1  4.06773771007101  1.29012010831083 -2.67717105940594
 1  5.17428072647265  2.34040843104310 -1.72010636523652
 1  5.95574089688969  1.31385171537154 -3.01803310261026
 1  6.63718674197420  1.54410063776378  0.11373887158716
 1  6.20295364336434 -0.10794404330433  0.80674168126813
 1  7.10029377147715 -1.29182025372537 -1.01986611531153
 1  7.74658618961896  0.42598947544755 -1.93928407530753
 1  8.94831092829283  0.93012562906291  0.17916187868787
 1  8.78806662946295 -0.68461681708171  0.79990460906091
 1  10.10339205070507  0.32163692999300 -1.74016784738474
 1  9.19253574997500 -2.18297534183418 -2.16617157835784
 1  10.81792487718772 -2.43148966156616 -1.61939812581258
 1  9.82173964756476 -2.59677129972997 -0.45407749844985
 1  11.05256001820182  0.80071447894789  0.42038400180018
 1  11.23017342704270 -0.64359669776978  0.94272174517452
 1  12.59024476017602 -1.51865872727273 -0.84218255315532
 1  12.63308221422142  0.22122160116012 -1.66696506030603
 1  13.65932743594360  0.98980223572357  0.56425308580858
 1  14.07585367566757 -0.84981741904190  0.99060423012301
 1  15.12021441354135  0.51618147854786 -1.59300896039604
 1  15.45063706470647 -2.32307903380338 -0.11901949954995
 1  14.91555908770877 -1.78845703930393 -1.80715843624362
 1  16.52691074967497 -1.74983891249125 -1.27570967976798
 1  16.13866907660766  1.56481555425543  0.69594301530153
 1  16.27862956495650 -0.17398379407941  1.21173410511051
 1  17.97795698759876 -0.56607357115712 -0.48132414001400
 1  17.74365444664467  0.91504276277628 -1.26570005390539
 1  18.38352703550355  2.34395629522952  0.64756985788579
 1  18.78877515491549  0.82185579687969  1.75610196179618
 1  20.61954202090209 -0.04424798899890  0.22192994339434
 1  20.17120395369537  2.88229721462146 -1.02269253875388
 1  21.59518563246325  1.89364524242424 -1.26447770177018
 1  20.03205403860386  1.25602700500050 -1.83436385968597
 1  21.09293930923092  1.19622892669267  2.63002244384438
 1  22.10803544404440  1.98932746394639  1.06158042424242
 1  20.83531606420642  2.80112378857886  1.57902383358336

