%nproc=4
%Mem=2GB
# td=(NStates=1) CAM-B3LYP/6-31G(d,p) 

TD

0 1
12 -7.21391306060606  0.58776701740174  0.09927797639764
 6 -4.82217109820982 -2.00468257955796  0.38591422632263
 6 -4.76478578487849  2.80891521882188  1.16935039223922
 6 -9.29606419521952  3.17696009540954 -0.50340167316732
 6 -9.50988201580158 -1.73826400140014 -0.78299641464146
 7 -5.14869765136514  0.40980224072407  0.74564208460846
 6 -4.38007561286129 -0.77129775017502  0.75201710451045
 6 -2.88680964216422 -0.45990126222622  1.25779122032203
 6 -3.03864415361536  0.98965009750975  1.74381718811881
 6 -4.40639872657266  1.37903828422842  1.15811207240724
 6 -2.87395518651865  1.17885437273727  3.22824635073507
 6 -1.88368264916492 -0.57903191329133  0.12508183398340
 6 -0.46997525152515 -0.29938817021702  0.58358694159416
 6  0.49115849424942 -0.53904733683368 -0.49862151395139
 8  0.14453500320032 -0.73260466426643 -1.68701798209821
 8  1.71380840584058 -0.41102600940094 -0.15193941404140
 7 -7.12756036453645  2.58519992729273  0.44304946174617
 6 -6.07306443744374  3.36981793569357  0.81876986098610
 6 -6.45503349304931  4.71871250165016  0.87238500300030
 6 -7.68735933133313  4.82845273197320  0.43151005800580
 6 -8.15146569976998  3.43623391469147 -0.02028168896890
 6 -5.44953073427343  5.82120321162116  1.24968149334934
 6 -8.46297550995100  6.01176624462446  0.33669369126913
 6 -8.16530572837284  7.26722280658066  0.02162790049005
 7 -9.04389942564256  0.73640011831183 -0.51294299959996
 6 -9.82064372337234  1.92032271487149 -0.73498862306231
 6 -11.21818656155616  1.50453144354435 -1.09872462206221
 6 -11.17944646534654  0.12300617791779 -1.25532479867987
 6 -9.89480936463646 -0.41169965806581 -0.76058536143614
 6 -12.35872411451145  2.49645192609261 -1.37578810971097
 6 -12.33879392509251 -0.75383644584458 -1.74724990219022
 6 -12.27580391239124 -1.13792767796780 -3.16821492689269
 7 -7.22603885598560 -1.41444080568057 -0.10325344404440
 6 -8.27866308860886 -2.25269120862086 -0.50281808770877
 6 -7.87435510301030 -3.62688687158716 -0.56030445944594
 6 -6.56811233323332 -3.64896921242124 -0.07598009010901
 6 -6.17843262146215 -2.30194634913491  0.10207182858286
 6 -8.64453479817982 -4.87115993489349 -0.94242378937894
 6 -5.25540207790779 -4.52288827412741  0.12665116501650
 8 -5.24124548634863 -5.63483613721372 -0.05477944314431
 6 -4.15613902390239 -3.36827976207621  0.58573946594659
 6 -3.60396476067607 -3.76947303190319  1.96863804350435
 8 -3.91932558715872 -3.20618385118512  2.97528124342434
 8 -2.75663701160116 -4.76876502900290  1.84049213721372
 6 -2.37433007150715 -5.21839230853085  3.10292162916292
 6  2.75393917051705 -0.54322358005801 -1.15858123302330
 6  4.03675699809981 -0.22898674807481 -0.46608913761376
 6  5.04831843924392  0.46506983148315 -0.92434233443344
 6  5.19880729732973  1.20621515781578 -2.26801389248925
 6  6.43494995259526  0.41951075797580 -0.18889557575758
 6  7.64104184308431 -0.18479036093609 -1.01274094279428
 6  8.95088417081708 -0.19325905940594 -0.14499709390939
 6  10.20651154415441 -0.47199429772977 -0.89707610201020
 6  10.27939512571257 -2.06844617951795 -1.33770543204320
 6  11.42318343544354 -0.17064795539554 -0.01975177647765
 6  12.77667483648365 -0.35537205310531 -0.78125866566657
 6  14.02312800060006 -0.23154991819182  0.16382359535954
 6  15.27752309630963 -0.14108672037204 -0.53228627892789
 6  15.70157425962596 -1.57909069486949 -1.00156743654365
 6  16.33811706570657  0.30332471857186  0.34298348304830
 6  17.88054375867587  0.43122124792479 -0.10589886978698
 6  18.76803220272027  1.26452829962996  0.73691605330533
 6  20.23711139093909  1.42463820842084  0.19919952355236
 6  20.30012024092409  2.21382703070307 -1.08442426382638
 6  21.17651552565257  1.96084045344534  1.35749245084508
 1 -4.03197345584558  3.44438281998200  1.44519904090409
 1 -10.10377412911291  3.88419600350035 -0.50217452005200
 1 -10.45002426422642 -2.37942799749975 -0.92831637913791
 1 -2.79585827652765 -1.15436510021002  2.11488872747275
 1 -2.33092273027303  1.59359784838484  1.23379774627463
 1 -1.71748547184718  0.78537402640264  3.66459667306731
 1 -2.95516030223022  2.20493995059506  3.63602817031703
 1 -3.63931491269127  0.66215058275828  3.65386927142714
 1 -2.07738026492649 -1.53024894529453 -0.51307629362936
 1 -2.09674387658766  0.16511860316032 -0.70915601720172
 1 -0.30834792879288  0.79483740724072  1.02689494139414
 1 -0.24350030373037 -0.95267824322432  1.47096997289729
 1 -4.65075724342434  5.94227940304031  0.20437221942194
 1 -5.81434610491049  6.99083888268827  1.28458314751475
 1 -4.86562979177918  5.49666483788379  2.20317399609961
 1 -9.47959545844584  5.89734267036704  0.59341718621862
 1 -9.11435207560756  7.91365995549555 -0.03422282898290
 1 -7.23574861146115  7.81780234943494 -0.58288275887589
 1 -12.32921833463346  2.89020632593259 -2.36973327172717
 1 -13.33923913741374  1.93534917301730 -1.16716023972397
 1 -12.38881584298430  3.15472855825583 -0.53262476047605
 1 -12.33823635173517 -1.67199959815982 -1.18231843974397
 1 -13.28000400400040 -0.16054986798680 -1.65999335633563
 1 -13.22343280948095 -1.57553879307931 -3.58295129282928
 1 -12.20093026702670 -0.18537726362636 -3.78607618261826
 1 -11.29228257585759 -1.75132807680768 -3.44414352985299
 1 -9.18832972887289 -4.64517736603660 -1.98139572097210
 1 -8.26466016701670 -5.79476958515852 -1.18748297639764
 1 -9.41039320512051 -5.18449523652365 -0.24037229342934
 1 -3.26296642864286 -3.54404598909891 -0.06573322632263
 1 -1.89325041504150 -4.36960533783378  3.71917860486049
 1 -3.35513070047005 -5.55928657105710  3.75467268936894
 1 -1.79980140664066 -6.15005918301830  2.81143784668467
 1  2.71500617171717 -1.54613430333033 -1.48991306760676
 1  2.61353305350535  0.04661758015802 -2.02776479627963
 1  4.17813703800380 -0.65662366856686  0.69756213241324
 1  4.13291422772277  1.52733382968297 -2.69480282258226
 1  5.68507180558056  2.16330072027203 -1.80997535213521
 1  5.70142546534653  0.68416874707471 -3.05037633693369
 1  6.76549957325733  1.43340956865687  0.21200869856986
 1  6.24253760176018 -0.37985123402340  0.65300630773077
 1  7.61023476557656 -1.27872894459446 -1.30497462616262
 1  7.94160569156916  0.31255813231323 -2.03809395629563
 1  9.12280837803780  0.69677229372937  0.35944990749075
 1  8.85197302010201 -0.78430678607861  0.75086970557056
 1  10.25375708720872  0.14755952225223 -1.74174800540054
 1  9.34872136853685 -2.17093413771377 -1.90350531173117
 1  11.02539562426243 -2.16543305590559 -2.07421360736074
 1  10.25727320092009 -2.83418504110411 -0.50196228692869
 1  11.38871363356336  0.84112852035204  0.30640260366037
 1  11.36570698039804 -0.86850918901890  0.83755122812281
 1  12.78761449714971 -1.35661252265227 -1.19415775067507
 1  12.64998390439044  0.57703718271827 -1.42760112391239
 1  13.92041354455445  0.78080133563356  0.58859552005201
 1  14.03046913721372 -1.08555099239924  1.01188635833583
 1  15.11093348544854  0.52390225062506 -1.49354901440144
 1  15.68846084708471 -2.34375110101010 -0.05236283388339
 1  15.04862239403940 -1.88758695229523 -1.79024674507451
 1  16.57523558215822 -1.83779770837084 -1.47147925672567
 1  16.04408961866186  1.26311538423842  0.88289171017102
 1  16.19127082908291 -0.35047144284428  1.38010094179418
 1  18.14252344424442 -0.67054401820182 -0.45713172077208
 1  17.69240932213221  0.84877613611361 -1.04042752665267
 1  18.34104278707871  2.09410130973097  1.12177727862786
 1  18.87948422582258  0.68853246454645  1.55307165876588
 1  20.45811587828783  0.39492592839284 -0.20489273887389
 1  19.85626245954596  3.27349633453345 -1.01624189368937
 1  21.40413652755275  2.33224910281028 -1.36713796779678
 1  19.69702053525353  1.55000640294029 -1.84368479177918
 1  21.24576459175918  1.43411271507151  2.26655609720972
 1  22.30521516201620  2.05874440564056  0.84642890909091
 1  20.87430996359636  3.00995467166717  1.60936686788679

