%nproc=4
%Mem=2GB
# td=(NStates=1) CAM-B3LYP/6-31G(d,p) 

TD

0 1
12 -7.19415108440844  0.57812605330533  0.15498354695470
 6 -4.85841472257226 -1.87857996929693  0.44212984788479
 6 -4.82803210951095  2.89887421472147  1.20515397259726
 6 -9.47445203400340  3.15598799819982 -0.41521285428543
 6 -9.61660268786879 -1.78433860886089 -0.75518363336334
 7 -5.13936671827183  0.43402466296630  0.70844836523652
 6 -4.35087269256926 -0.59652027242724  0.73422532533253
 6 -2.93456441764176 -0.42814808690869  1.17717315851585
 6 -3.00989127832783  1.07051818431843  1.58751155755576
 6 -4.41900998769877  1.59863024342434  1.13645990719072
 6 -2.85160295129513  1.23777026432643  3.27194072017202
 6 -1.89681396229623 -0.54135814591459 -0.00004067826783
 6 -0.42256051005101 -0.48200643204320  0.50537912081208
 6  0.50815019341934 -0.63447687978798 -0.67462911471147
 8  0.16226677637764 -0.86378778257826 -1.85733501380138
 8  1.85716274127413 -0.44207911471147 -0.35780000010001
 7 -7.21937954645465  2.61907331463146  0.35391054785479
 6 -6.18731586258626  3.34710566446645  0.85651363536354
 6 -6.45595358505851  4.75575620602060  0.91660942544254
 6 -7.76920751615161  4.95426531323132  0.42773968096810
 6 -8.22550310351035  3.49422971427143  0.18792913211321
 6 -5.59623540474047  5.80964205550555  1.44187071227123
 6 -8.68957817021702  6.00279534753475  0.45299532143214
 6 -8.24263346114611  7.18440452475248 -0.05487975027503
 7 -9.13517855355536  0.71429790809081 -0.41394309960996
 6 -9.93126478547855  1.79463014561456 -0.59874499869987
 6 -11.29035377827783  1.48396938733873 -1.05091984158416
 6 -11.33622214291429  0.08010188748875 -1.18411767796780
 6 -9.98924880858086 -0.40684917301730 -0.82782208510851
 6 -12.38817705980598  2.42160444134413 -1.39213974487449
 6 -12.44125417111711 -0.76466752895290 -1.56912208940894
 6 -12.35171150315032 -1.18057194239424 -3.07052515791579
 7 -7.26063231533153 -1.46480584218422 -0.21104422312231
 6 -8.36048127042704 -2.30300624012401 -0.52857066296630
 6 -7.82477014451445 -3.72434661756176 -0.50913934293429
 6 -6.45930145214522 -3.68249256475648 -0.10730322242224
 6 -6.18343312151215 -2.22826898139814 -0.00533891249125
 6 -8.59337968266827 -4.95295811471147 -0.84715426242624
 6 -5.27543408110811 -4.30725671097110  0.33229172907291
 8 -5.08968032983298 -5.56368902250225  0.34868090289029
 6 -4.29588299829983 -3.26016895099510  0.54817570957096
 6 -3.51963632783278 -3.56322240684068  1.86819799949995
 8 -3.52724637923792 -3.04135736853685  2.97747146244624
 8 -2.71683303120312 -4.57316546904690  1.61801988998900
 6 -2.00761339983998 -5.22080254955496  2.83655499249925
 6  2.82676645324532 -0.54088334603460 -1.31301667656766
 6  4.14633795619562 -0.38740258965897 -0.67033956265627
 6  5.19568317571757  0.33024634913491 -1.10326022622262
 6  5.06833425002500  1.22247678397840 -2.34577166826683
 6  6.51774823242324  0.48143695059506 -0.31295798199820
 6  7.68572631153115 -0.19085096699670 -0.99199886858686
 6  8.95714479687969 -0.15743547704770 -0.14687728192819
 6  10.25960685368537 -0.60723782208221 -1.00165656005601
 6  10.04489167536754 -2.08123745864586 -1.50836249774977
 6  11.42929404650465 -0.34933582418242  0.01739193789379
 6  12.76418358735874 -0.54218073397340 -0.72388292809281
 6  14.03476916471647 -0.10206696989699  0.21138835183518
 6  15.43405874987499 -0.27147975967597 -0.47064011431143
 6  15.77946204840484 -1.71521430723072 -0.80541782158216
 6  16.44131738573857  0.25360974707471  0.52562174687469
 6  17.79917562186219  0.45248337413741 -0.13927220712071
 6  18.79700510001000  1.29098094489449  0.79768212991299
 6  20.16480416021602  1.36214195879588  0.36005560916092
 6  20.36490671957196  2.32610825882588 -0.87900372177218
 6  21.11946982108211  1.95154952435244  1.51085778737874
 1 -4.01542180068007  3.60741912361236  1.21693621462146
 1 -10.06063981568157  4.06644422832283 -0.70172447504751
 1 -10.46625588738874 -2.39442949764976 -1.24055760326033
 1 -2.43354204490449 -1.13004266796680  1.91564880348035
 1 -2.05065470347035  1.76186467506751  1.21238560506051
 1 -1.75530925422542  0.94889037803780  3.57393760716072
 1 -3.02434722092209  2.35318477507751  3.51213578107811
 1 -3.58639962116212  0.38488285598560  3.81990587508751
 1 -2.02129465636564 -1.38853477387739 -0.61939692569257
 1 -2.23642784498450  0.37358945024502 -0.57531263286329
 1  0.17698060406041  0.35849377287729  0.95876812871287
 1 -0.26705265896590 -1.35880885628563  0.92572544844484
 1 -4.88935110281028  6.21340651575158  0.69807158935894
 1 -6.12414708500850  6.83651345014501  1.69244393359336
 1 -5.19295252405241  5.43147831923192  2.33452713141314
 1 -9.67474497339734  5.84923785988599  0.56971481598160
 1 -9.00402104250425  8.00780937043704 -0.27150655735574
 1 -7.15910094669467  7.42485305450545 -0.45944041464146
 1 -11.87894330713071  3.23526083138314 -2.18147444584458
 1 -13.33558877237724  2.00961659975998 -1.61415493919392
 1 -12.33751071247125  3.12165525092509 -0.40181167916792
 1 -12.52567509560956 -1.75348774697470 -1.03169337723772
 1 -13.42283828742874 -0.44731854485449 -1.37201455845585
 1 -13.25590605680568 -1.65418665786579 -3.37056005370537
 1 -12.33635380938094 -0.13140186608661 -3.60589816481648
 1 -11.54219756735674 -1.64410735473547 -3.41891100660066
 1 -8.82663355925593 -4.91076392469247 -1.82317989938994
 1 -7.86767046804681 -5.78050815901590 -0.88934316241624
 1 -9.39279144494449 -5.30430721772177 -0.33564182038204
 1 -3.50835096709671 -3.32917450195019 -0.13296994999500
 1 -1.36973806380638 -4.38575695299530  3.24238092509251
 1 -2.77641282868287 -5.50455109750975  3.62786000810081
 1 -1.45806723322332 -6.00368454555456  2.37678438133813
 1  2.81880655175518 -1.64114380428043 -1.71361543784378
 1  2.65553725392539  0.06608952735274 -2.05842786258626
 1  4.13861308560856 -0.86466447264726  0.38827120332033
 1  4.09464040034003  0.99754085038504 -2.80633397569757
 1  5.23582688108811  2.39256364656466 -2.40393474807481
 1  5.89528485128513  0.81452178237824 -3.08389968926893
 1  6.61490451375137  1.48192442014201  0.17253475117512
 1  6.51281462946295 -0.06340958985899  0.70530153725373
 1  7.47961170327033 -1.28761983368337 -1.31300542924292
 1  7.79099063006301  0.21058793529353 -1.95621576847685
 1  9.23198929612961  0.90469308580858  0.02986694919492
 1  8.80489831263126 -0.94530288568857  0.55620023862386
 1  10.30735244674467  0.06185095139514 -1.87598142874287
 1  9.35086158255826 -2.12565961026103 -2.18345330653065
 1  11.12500558525853 -2.35864237683768 -1.99112529852985
 1  10.09443691729173 -2.80668229082908 -0.70469255995600
 1  11.30674543674367  0.60211461896190  0.43559552295230
 1  11.38153856355635 -1.02758509660966  1.00979845284528
 1  13.06299203490349 -1.74024088548855 -1.01508984388439
 1  12.79807871387139  0.03539301830183 -1.64895325912591
 1  13.98463996719672  0.94217747324732  0.48896555705571
 1  14.03754984528453 -0.74406684398440  1.01464663436344
 1  15.39831222332233  0.35432529292929 -1.29477913741374
 1  15.71726372737274 -2.48166489238924  0.12038444084408
 1  15.37248478027803 -2.40739893349335 -1.60907862826283
 1  16.79053711231123 -1.72239616821682 -1.20040214901490
 1  16.09301451115111  1.19145821852185  0.93898731973197
 1  16.38853055505551 -0.33266966266627  1.45907883958396
 1  18.32991218311831 -0.49172613641364 -0.45047105470547
 1  17.83789387058706  0.88079933843384 -1.11477496139614
 1  18.28690737353735  2.36926882648265  0.76744184508451
 1  18.81680795819582  0.99292290359036  1.89858621022102
 1  20.57706777347735  0.45244167996800 -0.05903815341534
 1  19.78915574887489  3.22494147904790 -0.67264753425343
 1  21.48185429932993  2.40509638753875 -1.03679493349335
 1  19.79831066426642  1.76471787408741 -1.81026144944494
 1  21.21251126642664  1.08741804560456  2.10345978757876
 1  22.17529216971697  2.11110964216422  0.85464973117312
 1  20.93974650725072  2.81718539473947  2.08013394459446

