%nproc=4
%Mem=2GB
# td=(NStates=1) CAM-B3LYP/6-31G(d,p) 

TD

0 1
12 -7.18597026632663  0.59429767046705  0.09242729132913
 6 -4.75492437353735 -1.97174928622862  0.51102673757376
 6 -4.79450875717572  2.92123645094509  1.16357981518152
 6 -9.44587917671767  3.08935133453345 -0.31363269626963
 6 -9.53751477907791 -1.80794096909691 -0.79652776777678
 7 -5.15466824842484  0.45328658915892  0.72488000840084
 6 -4.36283388868887 -0.73032365276528  0.77077898069807
 6 -2.82398335953595 -0.39832510461046  1.09188462966297
 6 -3.00044033323332  1.02566369886989  1.58914172057206
 6 -4.33564165086509  1.56873725412541  1.08318457965797
 6 -3.00817860886089  1.11143763106311  3.14830835693569
 6 -1.91437571847185 -0.66044005410541 -0.02891356555656
 6 -0.46531478547855 -0.47040527192719  0.43780236313631
 6  0.52139151755176 -0.60761419351935 -0.77433908570857
 8  0.23044359405941 -0.90068147194719 -1.87744702500250
 8  1.84828185318532 -0.28773368016802 -0.30488470857086
 7 -7.11241885038504  2.68720012731273  0.34554971177118
 6 -6.05740287128713  3.34638559245925  0.82190017401740
 6 -6.42188017771777  4.74835546594659  0.93614137863786
 6 -7.66721731713171  4.81424131083108  0.48518542554255
 6 -8.16197675087509  3.52519281058106  0.18851919111911
 6 -5.61937771897190  5.89438052935293  1.52827935313531
 6 -8.52645185758576  6.01666673467347  0.35319534143414
 6 -8.14407360516051  7.27241332563256 -0.04551881418142
 7 -9.09949498519852  0.66014249254925 -0.40902260756076
 6 -9.92859451845185  1.74660534313431 -0.55837096129613
 6 -11.22782752565257  1.32908389878988 -1.07024177377738
 6 -11.19235775647565  0.03325720302030 -1.07571683788379
 6 -9.91223110681068 -0.41900038813881 -0.71623092599260
 6 -12.28667690979098  2.39037131803180 -1.44667519841984
 6 -12.37602764846485 -0.85383644584458 -1.62928810601060
 6 -12.30484681668167 -0.95236912211221 -3.16434453985399
 7 -7.16527277937794 -1.40949031063106 -0.18141125982598
 6 -8.26165138743874 -2.21967790729073 -0.51143894979498
 6 -7.81789945744574 -3.60151433433343 -0.52209063806381
 6 -6.45318084008401 -3.60817513301330 -0.19090158225823
 6 -6.05697047524752 -2.17600375487549  0.06862848424842
 6 -8.58763910861086 -4.90436325522552 -0.67378692569257
 6 -5.31730826852685 -4.44245023032303  0.18097659755976
 8 -5.04896625842584 -5.59916256985699  0.15977201200120
 6 -4.10453386338634 -3.33118605270527  0.40713160516052
 6 -3.51735609980998 -3.65280136473647  1.74696587628763
 8 -3.85932958755876 -3.12600583338334  2.79579329462946
 8 -2.56906825472547 -4.69455760826083  1.78038612661266
 6 -2.40643328182818 -5.22194266356636  3.14629596659666
 6  2.86026980358036 -0.65013427112711 -1.30578595349535
 6  4.11544486688669 -0.40368421782178 -0.55013754245425
 6  5.23994760216022  0.36135946044604 -1.02471237143714
 6  5.10578799539954  1.35585012131213 -2.27001409250925
 6  6.48659511711171  0.49410821772177 -0.14003068926893
 6  7.66680441934193 -0.01039292119212 -0.98648831753175
 6  8.93497257965797 -0.06815654915492 -0.09264185838584
 6  10.23117401040104 -0.54576167446745 -0.77846424082408
 6  10.01856904310431 -2.07023635853585 -1.04585624712471
 6  11.45456657375738 -0.23253414401440 -0.07964776607661
 6  12.74728189718972 -0.67003351925193 -0.66143668346835
 6  13.89675536333633 -0.10513727692769  0.10571778477848
 6  15.29575491949195 -0.24724733643364 -0.52514556485649
 6  15.63837793999400 -1.69463224902490 -0.84455173497350
 6  16.28589184318432  0.41290567666767  0.31802098679868
 6  17.69689539383938  0.44876300210021 -0.17039531943194
 6  18.74902030153016  1.20645249204920  0.74191655335534
 6  20.12345002480248  1.37324306890689  0.22855245884588
 6  20.18139836873687  2.27000264826483 -1.04799062046205
 6  21.05175304940494  1.82997736713671  1.45041174277428
 1 -4.06239649814982  3.80308869056906  1.17237175817582
 1 -10.03720747244724  4.01920950485049 -0.33409771237124
 1 -10.31247050885088 -2.54523457815782 -1.13482703020302
 1 -2.64127281798180 -0.84349401310131  2.01111835043504
 1 -2.19508914691469  1.76676516511651  1.07553191969197
 1 -1.98660238353835  0.71957744674467  3.44021423482348
 1 -3.11280606680668  2.16827628422842  3.64424899239924
 1 -3.88151913311331  0.53326769446945  3.42403628812881
 1 -2.08706123302330 -1.58839475987599 -0.55736072207221
 1 -2.16156035823582  0.26867895919592 -0.78646374797480
 1 -0.37885497949795  0.69893781728173  0.84352660456046
 1 -0.18024397809781 -1.24074705010501  1.22911578747875
 1 -4.99886205390539  6.35082025712571  0.78388017021702
 1 -6.35371004130413  6.65889568836884  1.68438312751275
 1 -5.21854508330833  5.41006617801780  2.33155683438344
 1 -9.67886538543854  5.93695663176318  0.22840068456846
 1 -8.72702334273427  8.01224981448145  0.03724431773177
 1 -7.15414045064506  7.51696226542654 -0.26486095669567
 1 -12.00721613441344  3.22910021532153 -2.13928022642264
 1 -13.07958317181718  1.91920755885589 -1.84732825652565
 1 -12.44603156455646  3.01422450785078 -0.50955245324532
 1 -12.44413694179418 -1.99791218941894 -1.34246445434543
 1 -13.31126713031303 -0.38632244524452 -1.35796315331533
 1 -12.97102756895690 -1.60913215241524 -3.70690368806881
 1 -12.36220639463946 -0.13174190009001 -3.70448802380238
 1 -11.20686403400340 -1.47350029402940 -3.50384950045005
 1 -9.23323421932193 -5.02416526482648 -1.48182576397640
 1 -7.93154685568557 -5.79116922512251 -0.76076030413041
 1 -9.16589875567557 -5.08488527552755  0.23487523132313
 1 -3.36961709370937 -3.66760834533453 -0.38721537453745
 1 -1.96841793179318 -4.28285666296630  3.63965065206521
 1 -3.40358554595460 -5.41325196759676  3.72613983608361
 1 -1.74886631313131 -5.85935011211121  2.86953365626563
 1  2.76560123122312 -1.79226891679168 -1.65701977827783
 1  2.87011871207121 -0.08187526912691 -2.06522854265427
 1  4.40860008430843 -1.14816282248225  0.31383375957596
 1  4.17518845514551  1.45352644894489 -2.54157750005001
 1  5.28756205460546  2.30498488868887 -2.02251660626063
 1  5.71101642444244  1.25417574777478 -3.02697399669967
 1  6.72514553785379  1.58884511221122 -0.07436993929393
 1  6.39069241724172 -0.08861211011101  0.72624363146315
 1  7.60400414251425 -1.02408348004800 -1.31503563226323
 1  7.95158668966897  0.61504838133813 -1.90173031993199
 1  9.14811090829083  0.99313192969297  0.27824178667867
 1  8.74627245004500 -0.72625098049805  0.88673329192919
 1  10.45095680718072 -0.09519475317532 -1.78903273387339
 1  9.12631912831283 -2.37251429572957 -1.55685064626463
 1  11.02854593929393 -2.43394990759076 -1.61361754775478
 1  9.95511298489849 -2.69207082968297 -0.13372546324632
 1  11.62226698889889  0.86833124062406  0.18417038043804
 1  11.46055646534653 -0.71202354045405  0.76425389838984
 1  12.67208294399440 -1.67244410581058 -0.73658199309931
 1  12.65122402840284 -0.27273779477948 -1.62656101990199
 1  13.58378988218822  0.92818607410741  0.63481014151415
 1  13.96578266856686 -0.55936837413741  1.07075224492449
 1  15.13702609470947  0.21619147954795 -1.44614427392739
 1  15.52661466246625 -2.37704443034303 -0.00537813541354
 1  14.87268480028003 -1.90156835043504 -1.51315903630363
 1  16.54549260786079 -1.84960888948895 -1.21489359815982
 1  15.88639384908491  1.28636770947095  0.43741716271627
 1  16.18825052705271  0.01419502380238  1.42848578027803
 1  18.18878807070707 -0.47992495629563 -0.62431843944394
 1  17.71319140034003  1.19126038453845 -1.16161964586459
 1  18.43375205800580  2.07247914751475  0.96837193809381
 1  18.92235851325133  0.91352496379638  1.86307265886589
 1  20.61354142084208  0.34297073287329 -0.05844809440944
 1  19.52034886818682  3.13487247214721 -0.75535580508051
 1  21.26718283218322  2.43784966286629 -1.39557081108111
 1  19.49038987218722  1.64655605790579 -1.85714613791379
 1  21.00760077537754  0.90953025682568  2.21069051065106
 1  22.01276591709171  1.93761229242924  1.05465973217322
 1  20.61029356195620  2.71180485668567  1.87796372757276

