%nproc=4
%Mem=2GB
# td=(NStates=1) CAM-B3LYP/6-31G(d,p) 

TD

0 1
12 -7.18083975327533  0.59990823152315  0.17137518611861
 6 -4.86952583368337 -2.05594770607061  0.62524815971597
 6 -4.90565987228723  2.85471979927993  1.35220867806781
 6 -9.39392398119812  3.09600199959996 -0.31702303530353
 6 -9.48346937453745 -1.70406058105811 -0.90968908390839
 7 -5.19570235183518  0.41960322082208  0.76559407980798
 6 -4.32617022232223 -0.73584420482048  0.90078198099810
 6 -2.91962292349235 -0.32511778387839  1.39689513071307
 6 -3.05911620082008  1.13089422192219  1.71295410181018
 6 -4.44553263996400  1.47470785118512  1.31207746894690
 6 -2.97408519951995  1.27147363466347  3.26218974507451
 6 -1.97443172407241 -0.50381439153915  0.18152747854785
 6 -0.42305055905591 -0.53184141554155  0.63958254115412
 6  0.57514689308931 -0.84078751085109 -0.45081673347335
 8  0.20633118281828 -1.08450985478548 -1.61382066236624
 8  1.77889491449145 -0.65281018781878 -0.05956017611761
 7 -7.12595020352035  2.61417282458246  0.46500165696570
 6 -6.11422855385539  3.38243919781978  0.90369835383538
 6 -6.39746773647365  4.82157278767877  0.89157692219222
 6 -7.67206780218022  4.93015290199020  0.39327623462346
 6 -8.15020557375738  3.51477176847685  0.10023036223622
 6 -5.60939672087209  5.93694478577858  1.28152467766777
 6 -8.53770298269827  6.05197026502650  0.16811683358336
 6 -8.19849904770477  7.36816290059006 -0.15843010531053
 7 -9.19646468216822  0.64168064636464 -0.47130883618362
 6 -9.88263992299230  1.74754543714371 -0.59581470567057
 6 -11.22955769866987  1.52971396179618 -1.05380012961296
 6 -11.25420394109411  0.14454833213321 -1.36043530973097
 6 -9.96337622132213 -0.42547103520352 -0.93563286618662
 6 -12.25199344144414  2.53091537243724 -1.41243177407741
 6 -12.32441248694870 -0.74242530473047 -1.84700987818782
 6 -12.20138647064707 -1.09220310551055 -3.33071117651765
 7 -7.25763201530153 -1.40056941854185 -0.03458657735774
 6 -8.23204842714271 -2.19003494299430 -0.52849065496550
 6 -7.81171883938394 -3.66032021492149 -0.49583801280128
 6 -6.38856437843784 -3.56356067156716 -0.28592108420842
 6 -6.23101787998800 -2.16290244474447  0.09629125052505
 6 -8.65930627532753 -4.80034285318532 -0.94809435643564
 6 -5.25297183488349 -4.37703368866887  0.04930343024302
 8 -5.06363772557256 -5.52728538213821 -0.07254121932193
 6 -4.15973938393839 -3.33722665676568  0.57088798079808
 6 -3.52398676287629 -3.69817590219022  1.85328650835084
 8 -3.73950760536054 -3.12383561636164  2.96858057335734
 8 -2.64744609250925 -4.80964911741174  1.76353444144414
 6 -2.15252789128913 -5.28906937623762  2.99246058305831
 6  2.84529830643064 -0.76438569626963 -1.10908628352835
 6  4.13569689208921 -0.42489633903390 -0.46187871657166
 6  5.09908351575158  0.27510083458346 -0.96276617681768
 6  5.01381879847985  1.19043357965797 -2.12889998109811
 6  6.39893635123512  0.46984579147915 -0.19180586678668
 6  7.66286402530253 -0.17665954785479 -0.97890755945595
 6  8.89904898729873 -0.22556228972897 -0.18319091329133
 6  10.19369026202620 -0.59947704600460 -0.93423981838184
 6  10.19877706390639 -2.17093642854285 -1.29029069056906
 6  11.46603772087209 -0.34615550615061 -0.15770557185719
 6  12.80170733973397 -0.38131464736474 -0.92964350415041
 6  13.95485117291729 -0.11497826102610 -0.02878566556656
 6  15.42005734973497 -0.20502311401140 -0.65696874717472
 6  15.72388649084909 -1.70515330113011 -0.87242452225222
 6  16.30498375237524  0.37728211431143  0.33510269496950
 6  17.73611931623162  0.68615674147415 -0.22920120002000
 6  18.63802920242024  1.42993484028403  0.75234759645965
 6  20.21890957075708  1.40043578817882  0.29816942054205
 6  20.32515274417442  2.22842849084908 -1.02018784018402
 6  21.07599547364737  1.96807117651765  1.33203990559056
 1 -4.27314757325732  3.52276065776578  1.73023754475447
 1 -10.20018377007701  3.81214879877988 -0.41804610721072
 1 -10.26755601740174 -2.47112716741674 -1.05907945544554
 1 -2.32755144584458 -0.91737140084008  2.04811204980498
 1 -2.19550918891889  1.75793428202820  1.20396476297630
 1 -1.81112483578358  1.18004349334933  3.58749896329633
 1 -3.31659644584458  2.39291874847485  3.61696626412641
 1 -3.45966694789479  0.47079144684468  3.77286117061706
 1 -2.01757428432843 -1.48284420482048 -0.53279826582658
 1 -1.89160336253625  0.11141323262326 -0.61569667126713
 1  0.01119402540254  0.48548647214721  1.19513176507651
 1 -0.38242419611961 -1.32168514391439  1.35854873077308
 1 -5.00117228492849  6.54536971207121  0.54342612481248
 1 -6.41186585688569  6.63828362716272  1.73871856105611
 1 -4.97745097389739  5.56681185258526  1.98559223792379
 1 -9.60479797869787  5.91584452055206  0.32452029652965
 1 -8.94224486488649  8.07362595209521 -0.26050545724572
 1 -7.13443848044805  7.48669923912391 -0.39718418901890
 1 -11.92083749654966  3.46916422172217 -2.08558485688569
 1 -13.16822203570357  2.13643928202820 -1.69446296999700
 1 -12.44997195859586  3.20099318471847 -0.56558805680568
 1 -12.42173470157016 -1.71245364356436 -1.27625783368337
 1 -13.31381738533853 -0.23531734473447 -1.77235459245925
 1 -12.84717518371837 -1.62339357855786 -3.84240723842384
 1 -12.23464363836384 -0.14317304320432 -3.83610118511851
 1 -11.24915826342634 -1.56369931393139 -3.53640275577558
 1 -8.95651654755476 -4.80946379467947 -2.03720130153015
 1 -8.18662236323632 -5.87497760596060 -0.84655888398840
 1 -9.68563072887289 -4.82289907690769 -0.44982323852385
 1 -3.52662279427943 -3.32787437193719 -0.21343799679968
 1 -1.71170226022602 -4.45915429272927  3.35221190819082
 1 -2.98174336173617 -5.72560320272027  3.48396561866187
 1 -1.33986541304130 -6.01994617171717  2.50184688758876
 1  2.74921959305931 -1.83148283818382 -1.40063413971397
 1  2.49955165536554 -0.08303538513851 -1.88157017681768
 1  4.34891411571157 -1.02977098329833  0.39569194539454
 1  4.00823175947595  1.28807990429043 -2.55005834813481
 1  5.41684498289829  2.17739212941294 -1.89723407800780
 1  5.53199852265227  0.70795112531253 -3.00232153145315
 1  6.92283530683068  1.49400562826283  0.02028952665267
 1  6.41417476547655  0.11299805090509  0.92095310241024
 1  7.40406414851485 -1.06346741844184 -1.48107223592359
 1  7.84163569456946  0.54719159565957 -1.95036518341834
 1  9.02680877807781  0.81324394089409 -0.00616665416542
 1  8.76570439323932 -0.82522087748775  0.89824444304430
 1  10.19883159465947 -0.17039227292729 -1.88883271387139
 1  9.04162065846585 -2.36626367066707 -1.63975893709371
 1  10.98602168686869 -2.39763627622762 -2.18223440944094
 1  10.43207068066807 -2.93436505910591 -0.46062815351535
 1  11.33855861806181  0.64434884238424  0.07588955235524
 1  11.24447485718572 -0.71588392649265  0.71085855885589
 1  12.84096983268327 -1.39151601300130 -1.40064839973997
 1  12.88034694069407  0.45295477447745 -1.72039040284028
 1  13.85151665486549  0.81101435693569  0.59094575507551
 1  14.06126221652165 -0.83469590689069  0.92812798249825
 1  15.41079347144714  0.33433329372937 -1.64012367186719
 1  15.79804180518052 -2.22463918981898  0.22537493989399
 1  14.81178871067107 -2.29740793439344 -1.30530825122512
 1  16.51369942854286 -1.98590251885189 -1.73578568736874
 1  15.90097530723072  1.41534060676068  0.86146956795680
 1  16.55379708170817 -0.20095649134913  1.26150908260826
 1  18.21031022292229 -0.35432239603960 -0.39000500810081
 1  17.53548362956296  1.22103336183618 -1.07169065296530
 1  18.44283296609661  2.43486538613861  1.00448554945495
 1  18.43362964036404  0.84748836013601  1.59743609520952
 1  20.46577664436444  0.44575101090109  0.12437018741874
 1  19.61220805410541  3.16511549644965 -0.68078834833483
 1  21.41667778167817  2.57261313921392 -1.27289854385439
 1  19.98323915711571  1.67090849314932 -2.05704612791279
 1  21.16339635493549  1.22764206800680  2.20695013661366
 1  22.15109975047505  1.99350788198820  1.12620688688869
 1  20.72879541214121  2.84246792299230  1.67700363156316

