%nproc=4
%Mem=2GB
# td=(NStates=1) CAM-B3LYP/6-31G(d,p) 

TD

0 1
12 -7.16285795509551  0.61892013271327  0.11181923052305
 6 -4.79857873897390 -2.00309242054205  0.47238287318732
 6 -4.78587789408941  2.80941526882688  1.09238269546955
 6 -9.40019460826083  3.11180357975798 -0.38853018601860
 6 -9.49375040264026 -1.71530170517052 -0.78118623362336
 7 -5.11414419601960  0.42985424592459  0.59073659405941
 6 -4.37161476677668 -0.70810143054305  0.76497840064006
 6 -2.88942990419042 -0.43620889298930  1.17639308050805
 6 -2.99640993019302  1.08725985848585  1.56667947434743
 6 -4.40023811051105  1.51357173757376  1.07504376557656
 6 -2.96672446344634  1.22931941924192  3.10097362346235
 6 -1.86689096999700 -0.63232724282428 -0.01042171637164
 6 -0.41281953595360 -0.46672490389039  0.60730931383138
 6  0.50805018341834 -0.70820425252525 -0.50870252205221
 8  0.30046059575958 -1.03028443224322 -1.60163944424442
 8  1.76870389538954 -0.33417832463246 -0.06106032613261
 7 -7.02714032253225  2.58105951325133  0.29519467626763
 6 -6.06564369536954  3.31885283918392  0.84798278227823
 6 -6.42303029272927  4.70860149054905  0.92085985048505
 6 -7.75911650705071  4.70342022872287  0.51908881588159
 6 -8.13785433863386  3.40262055335534  0.11190152935294
 6 -5.47905368656866  5.85147623892389  1.25913243844384
 6 -8.54955416781678  5.99288435643564  0.41415143704370
 6 -8.19596879467947  7.24391047534754 -0.00312457475748
 7 -9.16168120382038  0.68488496679668 -0.36168787408741
 6 -9.91650330933093  1.82880356295630 -0.61476660086009
 6 -11.22252699559956  1.52869385978598 -1.19975472507251
 6 -11.28245676637664  0.11280515781578 -1.30399966616662
 6 -9.95531541524152 -0.36253474157416 -0.84624392729273
 6 -12.28623686578658  2.42533481438144 -1.40722125302530
 6 -12.44672471817182 -0.73589465166517 -1.74709988718872
 6 -12.36079241124112 -1.03228711391139 -3.23864196959696
 7 -7.28323457555756 -1.38531789338934 -0.15900901960196
 6 -8.32485770807081 -2.20609654915492 -0.45261306720672
 6 -7.82291995949595 -3.57047123002300 -0.56346477547755
 6 -6.52806832883288 -3.54614893039304 -0.21622411451145
 6 -6.16961173937394 -2.21014716921692  0.13446506790679
 6 -8.67788813351335 -4.90871369026903 -0.96523607060706
 6 -5.29917645534553 -4.43576956225623  0.20174867476748
 8 -5.21145250705070 -5.62214486808681  0.14545057985799
 6 -4.19456286628663 -3.32512544664466  0.63756464846485
 6 -3.53950831503150 -3.68461454605461  1.89019019871987
 8 -3.89642329692969 -3.30565379817982  2.93931764706471
 8 -2.60069141704170 -4.73494164666467  1.77648573657366
 6 -2.12076471497150 -5.26703717301730  2.94964630163016
 6  2.83226700330033 -0.49460871857186 -1.10503587848785
 6  4.11460478287829 -0.25281913131313 -0.32556508520852
 6  5.17664127152715  0.42220554505451 -0.80535043524352
 6  5.15924334093409  1.23713825012501 -2.12762985408541
 6  6.41648810641064  0.56825563246325 -0.16950363656366
 6  7.53533127202720 -0.09125100700070 -0.96170583928393
 6  8.91023010541054 -0.07835756925693 -0.04076667086709
 6  10.14309520252025 -0.49855695399540 -0.79969636403640
 6  10.04972215841584 -1.97249658455846 -1.32960462196220
 6  11.36147726482648 -0.39661055165517  0.13467366606661
 6  12.71007817681768 -0.59067558345835 -0.64155469526953
 6  14.00982667046705 -0.19182594579458  0.20779799279928
 6  15.32715805980598 -0.19005161686169 -0.52820587088709
 6  15.67378148034804 -1.63698648444844 -1.09101638143814
 6  16.46261951595159  0.37889227532753  0.44986417111711
 6  17.84520022432243  0.53959208500850 -0.37883616351635
 6  18.82045744524453  1.27570941774177  0.62778514021402
 6  20.26815449524953  1.37367311191119  0.13719332293229
 6  20.40760098899890  2.11463711171117 -1.11579740114011
 6  21.04949282338234  1.94783915331533  1.37099380098010
 1 -3.90959121762176  3.57120550225022  1.50891541254125
 1 -10.05427917961796  4.06146373027303 -0.59962426502650
 1 -10.41756101790179 -2.43293334803480 -1.00418396589659
 1 -2.70436912761276 -0.94546421012101  1.93999123772377
 1 -2.20530016801680  1.59173766236624  0.96173053955396
 1 -1.90266398969897  0.95710119911991  3.51091130453045
 1 -3.06246103230323  2.29851930853085  3.18914348184819
 1 -3.74814579577958  0.61970633833383  3.52926681118112
 1 -1.95614814171417 -1.51394731513151 -0.46435142114211
 1 -2.13556775897590  0.11901399269927 -0.81561666326633
 1 -0.32782987698770  0.51687961146115  1.00783303520352
 1 -0.11575752945295 -1.26888986438644  1.43251612751275
 1 -4.77773994169417  6.02749792489249  0.24180596279628
 1 -6.21358602890289  6.89456925572557  1.37220190939094
 1 -4.83636686548655  5.54368954035404  2.10377405610561
 1 -9.59879737863786  5.88366130223022  0.85873371787179
 1 -8.91111175157516  7.90518910841084  0.15344593789379
 1 -7.31282631923192  7.40902147134714 -0.36408087868787
 1 -12.30599601240124  3.24214151945194 -2.14940123852385
 1 -13.40498571207121  1.96530216831683 -1.62260578427843
 1 -12.47635459685969  3.01218430383038 -0.51825332333233
 1 -12.46801933003300 -1.67398979717972 -1.23178338623862
 1 -13.30052605620562 -0.25000881388139 -1.71912926992699
 1 -13.14356482268227 -1.72591383058306 -3.53274627232723
 1 -12.44812498649865 -0.12638136403640 -3.88187576257626
 1 -11.35371871947195 -1.45702864686469 -3.55486460196020
 1 -9.31253214911491 -4.89095194349435 -1.87629521092109
 1 -7.82424612561256 -5.64508461666167 -0.97831205930593
 1 -9.40739290509051 -5.05569235623562  0.09248099189919
 1 -3.07350748274827 -3.39907149164916  0.00790413741374
 1 -1.67497858785879 -4.44168254555456  3.40883757075708
 1 -2.90892608000800 -5.49122976537654  3.71626884898490
 1 -1.59691111761176 -6.14034821192119  2.68961566446645
 1  2.76317098819882 -1.58068775867587 -1.44770884718472
 1  2.65859755995600  0.13321624002400 -2.04375639543954
 1  4.29976920122012 -1.00923893009301  0.50542291849185
 1  4.16072700900090  1.48655975227523 -2.47525086738674
 1  5.59362266066607  2.31077546774677 -2.31221557615762
 1  5.63933925672567  0.58898922912291 -2.98373967326733
 1  6.58516153945395  1.63699992769277 -0.07201970427043
 1  6.12713606160616  0.04213096419642  0.77909891699170
 1  7.45379912201220 -1.01990306200620 -1.23619774847485
 1  7.60372190319032  0.52345922242224 -1.80016016291629
 1  8.94135023222322  0.91723433993399  0.17699166166617
 1  8.67878570137014 -0.52939129452945  0.73787840644064
 1  10.20912262376238  0.05324009030903 -1.70580441104110
 1  9.22450894729473 -2.16574361866187 -2.01633659485949
 1  11.08046113081308 -2.16462297489749 -1.94835102110211
 1  9.93676114971497 -2.79924154675468 -0.69217130783078
 1  11.17235199739974  0.50598500600060  0.52871483488349
 1  11.20894130383038 -1.14472681078108  0.86745421842184
 1  13.02378811451145 -1.50955781718172 -1.04460279517952
 1  12.69180808680868 -0.00377089808981 -1.59010737453745
 1  13.92140364356436  0.70354360986099  0.55500216071607
 1  14.02572866316632 -0.88533097039704  1.04184935463546
 1  15.26919931203120  0.47624748514851 -1.30757041654165
 1  15.95936793779378 -2.47010373627363 -0.31026862446245
 1  14.88159569136914 -1.91381957555756 -1.77168488888889
 1  16.63659171777178 -1.53344727332733 -1.68400050885088
 1  16.03423863356335  1.39203827652765  0.94565798679868
 1  16.89544124612462 -0.44198059375938  1.20126305800580
 1  18.23398259015902 -0.39088605240524 -0.54645065266527
 1  17.81598167936794  1.07613887238724 -1.36261974587459
 1  18.55846452925292  2.31007290689069  0.81120622152215
 1  18.93303958135813  0.78614222552255  1.71712806440644
 1  20.54864493119312  0.33857029282928  0.06758450885088
 1  20.16417325062507  3.28201718661866 -0.85813608310831
 1  21.65621173507351  2.23084896279628 -1.38370962496250
 1  19.94420525372537  1.96870827312731 -2.20083050635064
 1  20.84623463876388  1.42763206700670  2.38095753735374
 1  22.10870551105111  1.96087461866187  1.09233349954995
 1  20.65519805240524  3.01291496769677  1.54737066826683

