%nproc=4
%Mem=2GB
# td=(NStates=1) CAM-B3LYP/6-31G(d,p) 

TD

0 1
12 -7.13202487178718  0.60934917561756 -0.01209316071607
 6 -4.85784466556656 -1.91200331163116  0.54690032493249
 6 -4.82132143844384  2.85665999329933  1.16229968716872
 6 -9.42730731953195  3.01592399179918 -0.26231756475648
 6 -9.53942497009701 -1.75700587558756 -0.95841395639564
 7 -4.99648242984298  0.51915317581758  0.56310383078308
 6 -4.34402200750075 -0.63957457785779  0.65926782958296
 6 -2.88249921112111 -0.35219049114912  1.21691713291329
 6 -3.05562585178518  1.12847397989799  1.58775158155816
 6 -4.33940202690269  1.56176655705571  1.09700596179618
 6 -2.92847063806381  1.26573306060606  3.14306783288329
 6 -1.91195547644764 -0.56522053215322  0.02320164596460
 6 -0.50188844284428 -0.43544177557756  0.47460604350435
 6  0.44410378877888 -0.71295472757276 -0.67892954475448
 8  0.10240078977898 -1.30644204800480 -1.71279055935594
 8  1.75247227222722 -0.33278818561856 -0.32337655775578
 7 -7.06292390089009  2.62836424372437  0.37527268406841
 6 -6.10411754275427  3.39474042794279  0.80743872787279
 6 -6.46455444514451  4.72826345674567  0.90809857435744
 6 -7.83467406280628  4.79872975967597  0.59586649364936
 6 -8.17571812501250  3.38391868316832  0.19244958415842
 6 -5.50643642484248  5.89105019631963  1.28359488468847
 6 -8.65003421582158  5.89375444344434  0.52363238513851
 6 -8.47415661346134  7.22577866216622  0.35195093279328
 7 -9.09857489318932  0.66277275557556 -0.56881858715872
 6 -9.86857851685168  1.73138382098210 -0.62873799799980
 6 -11.18086282918292  1.48134912531253 -1.05023977357736
 6 -11.22938145884588  0.03826770407041 -1.25222448864886
 6 -9.93757364106411 -0.40565905400540 -0.93368267116712
 6 -12.36676491859186  2.35183746464646 -1.35550608150815
 6 -12.41652169786979 -0.79172023422342 -1.62427760496050
 6 -12.30613694569457 -1.22160604580458 -3.14312241764176
 7 -7.23510976307631 -1.35211457305731 -0.06915003370337
 6 -8.23889911221122 -2.21262720222022 -0.60537834373437
 6 -7.75671333883388 -3.60157434033403 -0.55825425442544
 6 -6.55091061306131 -3.55830014551455 -0.06879937203720
 6 -6.20040481868187 -2.16731288578858  0.09264088548855
 6 -8.59986033073307 -4.88809162806281 -0.71672121912191
 6 -5.29358589628963 -4.37507349264926  0.29693819371937
 8 -5.12978434023402 -5.57965061866187  0.36040207500750
 6 -4.14874828482848 -3.28285121922192  0.51857274927493
 6 -3.43419778397840 -3.51956804140414  1.82243342304230
 8 -3.64111776637664 -3.02021525432543  2.90770448574857
 8 -2.58851019891989 -4.53669182168217  1.60912900090009
 6 -2.12582522102210 -5.10428089738974  2.90522185918592
 6  2.80726450305030 -0.74027328502850 -1.30000537543754
 6  4.10462378477848 -0.43354720412041 -0.55255778447845
 6  5.09953356075608  0.41930525502550 -1.01633153335334
 6  5.02650006660666  1.07987252355235 -2.47542463356336
 6  6.38751520912091  0.44454326122612 -0.33546023222322
 6  7.62698043694369 -0.12287416931693 -1.00308997769777
 6  8.90632971537154 -0.16218595209521 -0.16264885908591
 6  10.26744763776378 -0.50929802810281 -0.95760215461546
 6  10.20449763596360 -1.96280561546155 -1.24372603410341
 6  11.49045016211621 -0.18377926852685  0.08113831253125
 6  12.72042921192119 -0.41131764766477 -0.65020556035604
 6  13.94598028582858 -0.07620438363836  0.15289250225022
 6  15.31167651165117 -0.01758437013701 -0.46702975327533
 6  15.58004210641064 -1.46481926772677 -1.09884716451645
 6  16.36701995599560  0.43232761886189  0.52132131683168
 6  17.90434613891389  0.43649177497750  0.00628234833483
 6  18.90204560406041  1.10267211401140  0.94870723242324
 6  20.18368604840484  1.24772051665166  0.29009861346135
 6  20.36815704460446  2.11611725972597 -1.01043686508651
 6  21.22596047014702  1.61726609600960  1.34331103270327
 1 -3.99303956245625  3.62389077077708  1.43511803280328
 1 -9.95131888358836  3.95028261216122 -0.45723002560256
 1 -10.47172643444344 -2.33481353605361 -1.37888143564356
 1 -2.54826351705170 -1.07917758145815  1.86410364896490
 1 -2.10928056605661  1.60172866146615  1.04978934543454
 1 -1.85381910521052  1.06366185518552  3.35589580298030
 1 -2.98987377357736  2.30065952255226  3.39947451495150
 1 -3.69584056525653  0.53511787948795  3.70869475397540
 1 -1.87169969686969 -1.43243916431643 -0.34410939693969
 1 -2.30561476367637  0.30699279057906 -0.79036413801380
 1 -0.16312340634063  0.55134305780578  0.64813706560656
 1 -0.20666662036204 -1.17927090249025  1.24279715561556
 1 -4.91762393009301  6.21937711281128  0.42240402260226
 1 -6.06460113041304  6.82343214201420  1.60116480568057
 1 -4.84118734753475  5.73396856825683  2.29155283398340
 1 -9.71070856975697  5.53449638573857  0.62519036353635
 1 -9.33077371777178  7.78000659015902  0.45162575587559
 1 -7.46385142174217  7.63073364256426  0.15819134853485
 1 -12.04921033383338  3.06571387668767 -1.96166246464647
 1 -13.26617183068307  1.99379501760176 -1.81662518621862
 1 -12.70414737613761  2.86226931233123 -0.51365286328633
 1 -12.37256978507851 -1.68238063626363 -1.07140734863486
 1 -13.40838684228423 -0.51424523752375 -1.44853221022102
 1 -12.98876934313431 -1.98025926512651 -3.43821681938194
 1 -12.56866704070407 -0.38780750665067 -3.89783735873587
 1 -11.21580492809281 -1.57639058305831 -3.23823293879388
 1 -9.38309920582058 -4.73898674697470 -1.62221980338034
 1 -8.09149285028503 -5.80487059525953 -0.81573580168017
 1 -9.21828399419942 -5.03937072407241  0.21893363716372
 1 -3.45277540954095 -3.60112169666967 -0.23919057205721
 1 -2.00771186118612 -4.16388476577658  3.63180986798680
 1 -2.98892407980798 -5.69425006740674  3.50250747284728
 1 -1.30364179067907 -5.63435761286129  2.60626732963296
 1  2.64028869997000 -1.65337502740274 -1.63737781408141
 1  2.57784948514852 -0.08986606820682 -2.28152017181718
 1  3.96593581788179 -0.88472647884788  0.43453582978298
 1  3.92956389268927  1.16387748404840 -2.61882522482248
 1  5.27369066746675  2.21597598779878 -2.33363771837184
 1  5.77552287508751  0.74399472967297 -3.18097939723972
 1  6.53403642694269  1.41133736143614 -0.15496799909991
 1  6.30653400140014 -0.16673992289229  0.62965397249725
 1  7.46485022712271 -1.17384845654565 -1.46140026872687
 1  7.80541207220722  0.40786766326633 -2.13938408530853
 1  8.87117321452145  0.85806842334233  0.35075903840384
 1  8.70112793559356 -0.96487484288429  0.75901051965197
 1  10.45242695419542  0.19642440874087 -1.74731856245625
 1  9.02699919631963 -2.18347539183918 -1.66967192839284
 1  11.04295738043804 -2.31385789838984 -1.87951413741374
 1  10.21733920752075 -2.60231185378538 -0.31866395709571
 1  11.21804656685669  0.75836024352435  0.54030599399940
 1  11.28132854255425 -0.74990732883288  0.99351682468247
 1  12.50585632133213 -1.51851871327133 -0.83052138703870
 1  12.79628853485349  0.21927140614061 -1.69181754555456
 1  13.77607911111111  1.01201445694569  0.41874853535354
 1  14.09029511981198 -0.81875431273127  1.10208537823782
 1  15.11532392449245  0.80666052645265 -1.12367202670267
 1  15.30225222622262 -2.27961468736874 -0.27797539513951
 1  15.07813534533453 -1.63271146474647 -2.13270099049905
 1  16.72379043764377 -1.54951888048805 -1.26027813661366
 1  16.01404661436144  1.47230630333033  0.95165858685869
 1  16.44801650365036 -0.31128752445244  1.36587951965197
 1  18.21539073097310 -0.60127709150915 -0.27009301690169
 1  17.71700178137814  1.12676393489349 -0.82963644754475
 1  18.51508019081908  2.11763366296630  1.12514761566157
 1  19.14566084348435  0.57842145344534  1.91873822542254
 1  20.46399646634663  0.28358479427943 -0.03347559715972
 1  20.09878671197120  3.09394837973797 -0.80596086558656
 1  21.35699181308131  2.09133501140114 -1.33505475947595
 1  19.54053488668867  2.03461486378638 -1.76850727402740
 1  20.96954696999700  1.17119642344234  2.42916235783578
 1  22.31074571507151  1.45706423762376  1.11760602680268
 1  21.02796532913291  2.77762143834383  1.46102203340334

