%nproc=4
%Mem=2GB
# td=(NStates=1) CAM-B3LYP/6-31G(d,p) 

TD

0 1
12 -7.17104877417742  0.55621386208621  0.07940598919892
 6 -4.91150003110311 -1.94915702700270  0.45764139903990
 6 -4.97360666696670  2.76631095839584  1.33033649084908
 6 -9.54980956975698  3.21882428182818 -0.35433676667667
 6 -9.58460948854886 -1.77447762276228 -0.88131624662466
 7 -5.11331411301130  0.44285554605461  0.75314283468347
 6 -4.33046065136514 -0.72140276067607  0.79038094089409
 6 -2.99308026922692 -0.39998527062706  1.25299074027403
 6 -2.97321761096110  1.03373450595060  1.66284909130913
 6 -4.44641272797280  1.49245962636264  1.25287154835484
 6 -2.88406619761976  1.30698718601860  3.17311083718372
 6 -1.85775005590559 -0.69798380848085  0.07168649444944
 6 -0.41774002800280 -0.63803203460346  0.55053363626363
 6  0.56250562896290 -0.70698413051305 -0.52244389618962
 8  0.18744929462946 -1.02977438123812 -1.66407568786879
 8  1.88260528552855 -0.47344225102510 -0.15438965906591
 7 -7.19494710321032  2.63379478677868  0.38330348714871
 6 -6.18760589158916  3.35773672757276  0.93021100510051
 6 -6.51255924562456  4.74223485388539  0.90002776727673
 6 -7.79213980938094  4.89724961166117  0.41140804780478
 6 -8.23467402060206  3.48206849814981  0.21561190039004
 6 -5.62662844404440  5.87039813111311  1.43094962016202
 6 -8.61593080548055  5.99409447744774  0.35933595549555
 6 -8.18659785758576  7.31419750405041  0.09292503020302
 7 -9.21895693139314  0.69498597689769 -0.51759346464646
 6 -9.92501416041604  1.75172585518552 -0.65258038223822
 6 -11.30795553845385  1.35743673407341 -1.07524227382738
 6 -11.32494101480148  0.05736961426143 -1.21940120632063
 6 -9.95674555825583 -0.40673916201620 -0.88880818371837
 6 -12.28374661676168  2.44698697959796 -1.36888741964196
 6 -12.40468051375137 -0.73138420062006 -1.65191036823682
 6 -12.28168450045005 -1.01176506170617 -3.18717682308231
 7 -7.27099335143514 -1.39465882748275 -0.17419053775378
 6 -8.32424764706471 -2.22994893439344 -0.63101090699070
 6 -7.85710337783778 -3.64702888578858 -0.52832126112611
 6 -6.48324384638464 -3.50627494299430 -0.00032252435244
 6 -6.21475625382538 -2.13573972847285  0.07234885628563
 6 -8.68381872657266 -4.84917773667367 -0.83116266326633
 6 -5.25783232093209 -4.27693367866787  0.14780328022802
 8 -5.10284164596460 -5.49683233683368  0.10385642044204
 6 -4.15295870587059 -3.31536447054705  0.47708860086009
 6 -3.55341970617062 -3.54231031563156  1.81584276397640
 8 -3.69217287188719 -2.94017725052505  2.84637835313531
 8 -2.72079342724272 -4.55920407290729  1.83889197719772
 6 -2.14979761826183 -5.02483295259526  3.08086942394239
 6  2.89315309190919 -0.72867212491249 -1.17885326022602
 6  4.14672799519952 -0.45880973037304 -0.57765029372937
 6  5.21990559795980  0.27838116261626 -1.17224712491249
 6  5.02654007060706  1.07724226052605 -2.40623771487149
 6  6.52546900450045  0.30352915981598 -0.47619430563056
 6  7.70384812371237 -0.33714559645965 -1.10577024572457
 6  8.94593367576758 -0.30328006150615 -0.18569116331633
 6  10.25169606260626 -0.59507660596060 -1.06324271867187
 6  10.18329551575158 -2.08791812671267 -1.52295395689569
 6  11.53989510661066 -0.33171406200620 -0.22653245454545
 6  12.89415658465846 -0.57759427532753 -0.79351989178918
 6  14.09369505730573 -0.22059882308231  0.13919113211321
 6  15.44436978097810 -0.25279789148915 -0.45039809010901
 6  15.78409251145115 -1.57477026282628 -0.95252253205321
 6  16.45886914091409  0.34115850195019  0.53638282298230
 6  17.80135583988399  0.66175430123012 -0.11464974487449
 6  18.71270667016702  1.36502834963496  0.83686604830483
 6  20.25611329112911  1.47650339493949  0.39916952055206
 6  20.47937816671667  2.22571821982198 -0.96509233063306
 6  20.97277515161516  2.12767713711371  1.57378408000800
 1 -4.25156541504150  3.45905428712871  1.52315683668367
 1 -10.20543429512951  3.78610619451945 -0.47645194779478
 1 -10.39375863766377 -2.52647270197020 -1.07437098459846
 1 -2.58030672137214 -1.13609327302730  2.24673191179118
 1 -2.34623426142614  1.68427691629163  0.98258262476248
 1 -1.76887061036104  1.02375786478648  3.60894110751075
 1 -3.11623640984098  2.35973543014301  3.38209277677768
 1 -3.54810579177918  0.59286365406541  3.52306619111911
 1 -1.89857238413841 -1.73123904430443 -0.22946793279328
 1 -2.07653185538554 -0.11047895659566 -0.57761286288629
 1 -0.28876597059706  0.38277620112011  1.16533878577858
 1 -0.19981593529353 -1.36929990539054  1.17984085998600
 1 -5.00826299399940  6.18065324042404  0.73454523672367
 1 -6.13858852915292  6.78223802260226  1.78534322352235
 1 -5.18024125292529  5.57291246264626  2.25097877657766
 1 -9.75479297819782  6.11387432353235  0.61394923942394
 1 -8.88624926532653  8.08085667516752  0.20976156945695
 1 -7.22870790739074  7.31510207940794 -0.02336680728073
 1 -12.01511692449245  3.20357766306631 -1.92625892429243
 1 -13.10647586108611  1.74945058315832 -1.85470899459946
 1 -12.70731769316932  2.94284737013701 -0.46325782378238
 1 -12.52018454655466 -1.72736513471347 -1.22178238613861
 1 -13.35040104370437 -0.07613142614261 -1.61863922092209
 1 -13.26637710391039 -1.44930616981698 -3.45470846854685
 1 -12.35362553655366  0.02084335843584 -3.84494206920692
 1 -11.41601494909491 -1.51553449744974 -3.33482259775978
 1 -9.33980487638764 -4.96314916321632 -1.70751833323332
 1 -7.88488218921892 -5.64683479167917 -0.89782401050105
 1 -9.33897606340634 -4.97593438043804  0.02032377617762
 1 -3.32511264326433 -3.32895447994799 -0.23024967796780
 1 -1.69376046604660 -4.10918929622962  3.45133182018202
 1 -3.01100628802880 -5.39735037743774  3.73129035113511
 1 -1.36253768026803 -5.67697187428743  2.75881258415842
 1  2.61755642674267 -1.80101979187919 -1.83352742904290
 1  2.69383108330833  0.02393531193119 -1.97671969176918
 1  4.57778700300030 -1.06448445464547  0.22559493569357
 1  4.04656559285929  1.10067116341634 -2.78472181448145
 1  5.26238953735374  2.24896928712871 -2.22144649924993
 1  5.73190851365136  1.01869219941994 -3.14170546984699
 1  6.77924094739474  1.32136836453645 -0.07065956825683
 1  6.47384073207321 -0.28671192009201  0.36286729382938
 1  7.57586132823282 -1.47816888858886 -1.19850397909791
 1  7.85667719871987  0.02631950845084 -2.09611975887589
 1  9.04414051125112  0.70040265676568  0.36979094159416
 1  8.87034485728573 -1.01989034443444  0.60500511911191
 1  10.21409312081208 -0.04895012871287 -1.98688251885189
 1  9.41779827622762 -2.11609865416542 -2.12216717791779
 1  11.30359344404440 -2.25932244484448 -1.88850503650365
 1  9.74858233183318 -2.87570919351935 -0.65455754645465
 1  11.63310807300730  0.59934434193419  0.17442940634063
 1  11.48436884658466 -1.08067040514051  0.53707118011801
 1  12.97616335203520 -1.75106196759676 -0.72709104400440
 1  13.03506241224122  0.10415989498950 -1.88460682448245
 1  13.79101060426043  0.74925818131813  0.44637129762976
 1  14.21074716501650 -0.76537897519752  1.05906107580758
 1  15.40479287138714  0.40184004440444 -1.23073273277328
 1  15.82680468146815 -2.37335406130613 -0.05424302190219
 1  14.92646017781778 -1.81813000660066 -1.71045876627663
 1  16.71959001760176 -1.57414134273427 -1.50962307110711
 1  16.07706291599160  1.26620569326933  1.01400482148215
 1  16.59000070207021 -0.29306570227023  1.31768470017002
 1  18.26033522542254 -0.24735169896990 -0.18570457805781
 1  17.73364344554455  1.22706396489649 -1.10604408830883
 1  18.42933161596159  2.37251915151515  0.87593269416942
 1  18.59142541994199  0.70724433573357  1.78207455905591
 1  20.78108817551755  0.51322775857586  0.22811056145615
 1  19.79585641894190  2.97325631053105 -0.94191446094609
 1  21.44049016291629  2.31128700660066 -1.36238749274927
 1  19.94412524572457  1.69644104640464 -1.80027045034503
 1  21.00180019531953  1.56535583938394  2.48256769836984
 1  22.12252689318932  2.16483501470147  1.31120538673867
 1  20.59760229282928  3.06704038023802  1.98015394659466

