%nproc=4
%Mem=2GB
# td=(NStates=1) CAM-B3LYP/6-31G(d,p) 

TD

0 1
12 -7.18901057035704  0.57222546324632  0.16057410601060
 6 -4.89432831393139 -1.91207331863186  0.44833046794679
 6 -4.82629193549355  2.83317764506451  1.18063152035204
 6 -9.51543613241324  3.10294269366937 -0.25637697069707
 6 -9.51942296989699 -1.84502467746775 -0.92136025102510
 7 -5.17886066766677  0.45812707320732  0.78871639203920
 6 -4.42078968426843 -0.68978959935994  0.73895579837984
 6 -2.98167912911291 -0.31238651075108  1.21483692489249
 6 -3.05883617281728  1.16997813031303  1.68853165956596
 6 -4.39474756145615  1.52608298869887  1.18849511071107
 6 -2.74722251325132  1.30200668796880  3.16054958105811
 6 -1.85517979887989 -0.65450946104610  0.03315264106411
 6 -0.45437369136914 -0.33726195759576  0.49678826172617
 6  0.58017739613961 -0.57482091419142 -0.61741339313931
 8  0.26429697939794 -1.04423582738274 -1.70836011631163
 8  1.82317934293429 -0.25909081588159 -0.13656787688769
 7 -7.20626823532353  2.63491489878988  0.32658781558156
 6 -6.14588171917192  3.38108906280628  0.83856184018402
 6 -6.54998298799880  4.72966359675968  0.85671343584358
 6 -7.80717131253125  4.79901978867887  0.52325923292329
 6 -8.25753630683068  3.41324161546155  0.15082542174217
 6 -5.70610639183918  5.94972606390639  1.41728825402540
 6 -8.71522073447345  6.00106517451745  0.36356637853785
 6 -8.41035023282328  7.31369745404540  0.09169490719072
 7 -9.15135017071707  0.63208968726873 -0.53555526082608
 6 -9.97194885388539  1.76212689528953 -0.56210133433343
 6 -11.21318606150615  1.43637462786279 -1.06677142674267
 6 -11.21347986868687 -0.06242236493649 -1.28273753995400
 6 -9.90957084078408 -0.47498598669867 -0.93783308620862
 6 -12.33934217631763  2.32418469936994 -1.25684621552155
 6 -12.45956600230023 -0.82805386758676 -1.75211038823882
 6 -12.43563989598960 -1.15175906110611 -3.36537464286429
 7 -7.25840209230923 -1.41752111371137 -0.19998311701170
 6 -8.27651287358736 -2.24432037153715 -0.59967777367737
 6 -7.88124579207921 -3.68816299919992 -0.49328775777578
 6 -6.59293481548155 -3.57924223972397 -0.10863335543554
 6 -6.23583836203620 -2.16597275177518  0.11491311271127
 6 -8.60054039873987 -4.96437925682568 -0.80810035703570
 6 -5.34968150585058 -4.38665465076508  0.10217871777178
 8 -5.16351771357136 -5.53503615721572  0.00506654145415
 6 -4.19794320432043 -3.33409634373437  0.46360725272527
 6 -3.49720408460846 -3.68555464006401  1.76952813251325
 8 -3.72933658825883 -3.04716794959496  2.81216493179318
 8 -2.66687803570357 -4.72199035153515  1.64202229022902
 6 -2.04931757025703 -5.04243471277128  2.95733707070707
 6  2.92908668526853 -0.53173243094309 -1.13709908480848
 6  4.14353767616762 -0.29608345774577 -0.51632416111611
 6  5.15100870827083  0.47046037053705 -0.93606350655066
 6  5.09355677227723  1.18587312361236 -2.24343143424342
 6  6.41876833443344  0.54576338323832 -0.09800648684868
 6  7.71357909680968 -0.09505138703870 -0.78821849054906
 6  8.97228631103110  0.05381564806481  0.01304871067107
 6  10.26985787878788 -0.53987108540854 -0.82917931233123
 6  10.08189537573757 -2.00838017291729 -1.18663032453245
 6  11.44054517161716 -0.26371726232623  0.17577777647765
 6  12.80044721372137 -0.53367988388839 -0.57118765856586
 6  13.98899458725873 -0.06769353255326  0.31411862486249
 6  15.39067441144114 -0.27616022772277 -0.49003205350535
 6  15.71775587778778 -1.73113589938994 -0.86578385818582
 6  16.43968722272227  0.33987837393739  0.40242942764276
 6  17.95253095739574  0.44274240004000 -0.25518379827983
 6  18.88556395589559  1.20110195699570  0.61215357705771
 6  20.40148782858286  1.23517926252625  0.11383098669867
 6  20.48786901580158  1.93800944894489 -1.22042786418642
 6  21.28912678677868  1.88963333273327  1.20596729832983
 1 -4.27224748324832  3.56346472817282  1.63373789478948
 1 -10.08632238393839  4.06480406430643 -0.32989729232923
 1 -10.40571983378338 -2.32437249194919 -1.05961950945095
 1 -2.74362305300530 -1.09521918561856  1.96163340194019
 1 -2.33618325632563  1.80068855745575  1.33829819631963
 1 -1.76731045434543  1.04694018301830  3.41145135853585
 1 -2.81136592279228  2.22285174177418  3.61650621812181
 1 -3.49427040824082  0.68955332303230  3.65344922942294
 1 -2.06054858175818 -1.51999792019202 -0.46878186418642
 1 -2.15694989718972  0.05240733203320 -0.81547664926493
 1 -0.30581767576758  0.63982190569057  0.98930118201820
 1 -0.27358331203120 -0.97967094249425  1.40242311821182
 1 -5.01268343604360  6.36965214031403  0.64972675487549
 1 -6.34780945124512  6.76851665046505  1.76066075527553
 1 -5.41056428522852  5.66647181858186  2.25268894759476
 1 -9.82281978087809  5.86675961206121  0.35410325482548
 1 -9.18175881628163  8.03374196369637 -0.12640204690469
 1 -7.47524256085609  7.44581515071507 -0.00282475307531
 1 -12.11173658645865  2.92628993429343 -2.02863916231623
 1 -13.26817203070307  1.76899253735373 -1.59084260796080
 1 -12.55009197059706  3.15951903730373 -0.37124862286229
 1 -12.53812634073407 -1.67436983518352 -1.15349555745575
 1 -13.40125612921292 -0.35177899089909 -1.45299265626563
 1 -13.15568603480348 -1.90158139733973 -3.81663466116612
 1 -12.40584075807581 -0.04965369126913 -3.84111168616862
 1 -11.46592994059406 -1.43669661366137 -3.70542965846585
 1 -8.94133502940294 -5.07012986128613 -1.89117669906991
 1 -7.95531923292329 -5.94390449864987 -0.41513574167417
 1 -9.46665883168317 -4.98922570957096 -0.06341459765977
 1 -3.51936206820682 -3.71434301880188 -0.38201485448545
 1 -1.17894898489849 -4.25844422172217  3.14619130613061
 1 -2.89392457985799 -5.14978562096210  3.70258748084808
 1 -1.58387981448145 -6.02970714781478  2.50625732863286
 1  3.02316698779878 -1.77680737063706 -1.48626270257026
 1  2.70929262946295  0.06266918531853 -1.98673069286929
 1  4.23512273657366 -0.61532953915392  0.68760113631363
 1  4.18577951425142  1.05593668996900 -2.57098044034403
 1  5.36851014941494  2.34981937213721 -2.15675002960296
 1  5.69035435823582  0.73616394659466 -3.17346864616462
 1  6.51622464576458  1.73769999769977 -0.06074857715772
 1  6.31131447944794 -0.00940418931893  0.87138814591459
 1  7.29554329642964 -1.23287435913591 -0.91836596529653
 1  7.91412294329433  0.34848172467247 -1.82216236313631
 1  9.03294939213921  1.09025164166417  0.23426738923892
 1  8.94163198599860 -0.50667902330233  1.04935955455546
 1  10.37842955445545 -0.08471370507051 -1.95588941954195
 1  9.14200069646965 -2.27359440374037 -1.85322028322832
 1  10.95430851555155 -2.50371688428843 -1.84956114211421
 1  9.89525699929993 -2.69933155575558 -0.42157424812481
 1  11.56012077427743  0.90956536403640  0.48560052345235
 1  11.25480589028903 -0.89866220432043  0.98886635963596
 1  12.88797453315332 -1.69253611501150 -0.77242557745775
 1  12.80745965196520  0.06781626062606 -1.55347371117112
 1  13.89631113431343  0.99056231173117  0.62594925542554
 1  13.89188527882788 -0.65179761706171  1.24253942364236
 1  15.32008440054005  0.47214707510751 -1.41203086258626
 1  15.64428642964297 -2.51736846274627 -0.08119571717172
 1  14.96816434823482 -2.17357555115512 -1.63344106450645
 1  16.68038609720972 -1.76572050065007 -1.34507661646165
 1  15.97459266896690  1.31898097079708  0.53989741074107
 1  16.65670737273728 -0.24296069176918  1.31169410111011
 1  18.46782597449745 -0.54460142394239 -0.36634264186419
 1  17.91599168036804  1.10969222772277 -1.24284776867687
 1  18.42234091689169  2.28613051265127  0.87851295219522
 1  19.11849812721272  0.77689130043004  1.69994634623462
 1  20.69308937563756  0.27419385518552 -0.21938418801880
 1  20.10177701100110  2.93996298119812 -1.27022729222922
 1  21.52058817271727  1.82358823672367 -1.54404565856586
 1  19.99730056325632  1.41361276357636 -1.98386881018102
 1  21.15376539183918  1.26486579037904  2.21404084568457
 1  22.23089773027303  1.91476000720072  0.84828909510951
 1  21.00070260286029  2.91207488368837  1.59090502170217

