%nproc=4
%Mem=2GB
# td=(NStates=1) CAM-B3LYP/6-31G(d,p) 

TD

0 1
12 -7.05371704100410  0.59534777547755  0.01808985758576
 6 -4.85849473057306 -1.99177128842884  0.43986962186219
 6 -4.77871717801780  2.80555488278828  1.07979143634363
 6 -9.46468105690569  3.08522092149215 -0.29453078607861
 6 -9.51533256085609 -1.76786696169617 -0.99463757875788
 7 -5.13592637423742  0.35160642114211  0.60120764116412
 6 -4.37731533683368 -0.71254187458746  0.75377728052805
 6 -2.89412037323732 -0.44549982208221  1.12675811701170
 6 -2.98155844504450  1.09433056555656  1.62136494289429
 6 -4.27173526022602  1.53580396079608  1.01220748194819
 6 -2.76307409840984  1.37533402070207  3.01981550765077
 6 -1.90479476037604 -0.78858286838684  0.03003232903290
 6 -0.51797005100510 -0.66665489688969  0.51064964786479
 6  0.42403178157816 -0.67740117221722 -0.64760641244124
 8  0.23263381308131 -0.92668407220722 -1.82900218051805
 8  1.73707073207321 -0.42278718551855 -0.18021224132413
 7 -7.07234484298430  2.51679308660866  0.34457961476148
 6 -6.04518164916492  3.29672062596260  0.73779176317632
 6 -6.36626461616162  4.74752538293829  0.82986075057506
 6 -7.70683127852785  4.74423431013101  0.47979488648865
 6 -8.19881043424342  3.35276556785679  0.18700904010401
 6 -5.51278705990599  5.80620171147115  1.34128065326533
 6 -8.62922213461346  5.96256132413241  0.29290931283128
 6 -8.16345554335433  7.21234731903190  0.17564330203020
 7 -9.12911794749475  0.67330380868087 -0.59947165246525
 6 -9.89372103110311  1.76228691129113 -0.60801592579258
 6 -11.24070881378138  1.44541553195320 -0.95391014061406
 6 -11.25568408910891  0.13987786508651 -1.19016828302830
 6 -9.87017690139014 -0.40267875597560 -1.01291059395940
 6 -12.37137537963796  2.46151843274327 -1.11933246414641
 6 -12.43855390109011 -0.66169723192319 -1.71764694189419
 6 -12.50331666366637 -0.84766865206521 -3.31656976237624
 7 -7.16468272037204 -1.32253161476148 -0.34828794749475
 6 -8.31077629992999 -2.26266220572057 -0.63874168006801
 6 -7.85654332183218 -3.68231241414141 -0.41498992799280
 6 -6.50613613561356 -3.62423673917392 -0.06086857895790
 6 -6.12149692789279 -2.17781393589359 -0.01830020862086
 6 -8.63718406310631 -4.77814063296330 -0.79024857185719
 6 -5.47990452815282 -4.43431941724173  0.38062656255626
 8 -5.24029539133913 -5.62095474907491  0.37043307810781
 6 -4.29301271127113 -3.37628056215622  0.65362625462546
 6 -3.57397176137614 -3.72051813641364  1.99770094979498
 8 -3.74090774537454 -3.12619585238524  3.00506422172217
 8 -2.77312866076608 -4.77267542004200  1.80569865786579
 6 -2.16082872137214 -5.19878034733473  3.07072840984098
 6  2.78469224582458 -0.64160341804180 -1.20407578247825
 6  4.09604292669267 -0.39622347174717 -0.54469699839984
 6  5.19765337273727  0.34817814231423 -0.91703160336034
 6  5.12861027762776  1.18318285458546 -2.14556164726473
 6  6.43044950255026  0.38616742364236 -0.14276096229623
 6  7.69788752765277 -0.12506438833883 -0.89957962666267
 6  8.89282836523652 -0.12976270977098  0.05483288908891
 6  10.19032992599260 -0.45409250755075 -0.84407080148015
 6  10.17665485168517 -1.79782911781178 -1.57646930843084
 6  11.39869098619862 -0.09871076167617  0.05550574927493
 6  12.75283245224522 -0.32265878177818 -0.61184172397240
 6  13.95721140894089  0.00381361816182  0.25834304730473
 6  15.30597594159416 -0.04775738743874 -0.45566861716172
 6  15.52200630283028 -1.54746753255326 -1.01910919071907
 6  16.42768602260226  0.40137452355236  0.40059924462446
 6  17.83477918221822  0.49357748354835 -0.26170445034503
 6  18.84081948144815  1.10772261906191  0.68066042774277
 6  20.41649932973298  1.23599934453445  0.19054865846585
 6  20.36761699059906  2.12813846184618 -0.99139496089609
 6  21.22261013511351  1.78679304870487  1.35981268286829
 1 -3.99562982148215  3.44745312701270  1.45119964096410
 1 -10.20231398309831  3.75071265516552 -0.16611091369137
 1 -10.34774403620362 -2.46452650735073 -1.42546609410941
 1 -2.48580727142714 -1.08398806250625  2.10383762236224
 1 -2.08157779577958  1.52883137173717  1.06877124362436
 1 -1.82967669096910  0.94851034003400  3.40675088848885
 1 -2.58748353455346  2.45771522812281  3.33457802530253
 1 -3.60790177137714  0.87673204090409  3.76771065556556
 1 -2.21793432033203 -1.83040896129613 -0.47144213021302
 1 -1.96026022822282  0.17168926022602 -0.71273637523752
 1 -0.48033512751275  0.26415433893389  1.20809306120612
 1 -0.31469742344234 -1.59544251965197  1.22053492939294
 1 -4.83708587628763  6.27160233533353  0.65853763596360
 1 -6.22782745304530  6.71307110591059  1.51032572177218
 1 -4.96677990679068  5.54177934933493  2.34169784848485
 1 -9.62426992589259  5.82703563966397  0.15038288278828
 1 -9.07286792719272  7.80210880038004 -0.08275768246825
 1 -7.06074111071107  7.59304987418742  0.23016854625463
 1 -12.04584999779978  3.16856416171617 -2.21169746814681
 1 -13.35549076257626  1.95804144224422 -1.35975949964996
 1 -12.32178914031403  3.01300438583858 -0.21477297529753
 1 -12.57032956105611 -1.61594399259926 -1.27188739663966
 1 -13.33747975157516 -0.06418023102310 -1.60820817781778
 1 -13.42862332853285 -1.26085732493249 -3.46711970967097
 1 -12.23787396139614  0.16898817291729 -3.80734830983098
 1 -11.66682002960296 -1.54429737373737 -3.73846296179618
 1 -9.03805470137014 -4.56078892719272 -1.72293987538754
 1 -8.10390409140914 -5.74974508270827 -0.70966519461946
 1 -9.59705187098710 -4.80611739873987  0.06574831863186
 1 -3.65001513351335 -3.47343892839284 -0.25450210321032
 1 -1.49449053905391 -4.49653803110311  3.38537522452245
 1 -3.13716890429043 -5.29044968736874  3.77036425852585
 1 -1.44094552105211 -6.07699187628763  2.79692639553955
 1  2.64331900300030 -1.62296198609861 -1.56532060836084
 1  2.62075377557756  0.12092501090109 -2.02873489328933
 1  4.11595081938194 -0.97453545974597  0.40867324352435
 1  4.12810374667467  1.19359045534553 -2.68214155645565
 1  5.52470576897690  2.27753214341434 -1.95658001260126
 1  5.88509383218322  0.93457378757876 -2.78664996429643
 1  6.68024104740474  1.54496072377238  0.34900239793979
 1  6.32488583658366 -0.30493374227423  0.83945495259526
 1  7.44839858195820 -1.22883395509551 -1.11771590029003
 1  8.03440497149715  0.42264914141414 -1.70517066396640
 1  9.15733183038304  0.83881649814982  0.74050801330133
 1  8.72245006780678 -1.09354771017102  0.69933455205521
 1  10.02270398189819  0.36879164546455 -1.75866969756976
 1  9.19247574397440 -1.79369641394139 -2.03564852605261
 1  10.92430551525153 -1.80173668626863 -2.23174936093609
 1  10.27655512911291 -2.60590221282128 -0.74282637333733
 1  11.21213597579758  0.92429683718372  0.35166713011301
 1  11.36959736943694 -0.74349668776878  1.06004347734773
 1  12.79555529122912 -1.37971483288329 -0.92128046294629
 1  13.06483538953895  0.28342782178218 -1.66518488228823
 1  13.89932143534353  1.09955321082108  0.57012367286729
 1  13.91782787308731 -0.49751218851885  1.33017818751875
 1  15.34316670877088  0.82371223162316 -1.30218987848785
 1  15.84186618761876 -1.99529625552555 -0.11549914751475
 1  14.69804733653365 -2.03007120072007 -1.42495021542154
 1  16.50062812141214 -1.66249017761776 -1.41938404720472
 1  16.23394860456046  1.45510458315832  0.68634205520552
 1  16.61031273327333 -0.40004640034003  1.41154408610861
 1  18.16231542344235 -0.40356732053205 -0.61815782338234
 1  17.79184926612661  1.12903416191619 -1.21268475237524
 1  18.41257994079408  2.13323522312231  0.94442954385439
 1  18.91820809820982  0.46497010831083  1.69999635123512
 1  20.58682874957496  0.28491492729273 -0.13324557415742
 1  20.09089592289229  3.20247923282328 -0.64129439893989
 1  21.32040815471547  2.17092297019702 -1.50717197119712
 1  19.58015884908491  1.86602800510051 -1.73237366066607
 1  20.91651166646665  1.05413471727173  2.14464390599060
 1  22.30642528302830  1.99824835603560  1.15430969716972
 1  20.84894742734274  2.83528720492049  1.64204013521352

