%nproc=4
%Mem=2GB
# td=(NStates=1) CAM-B3LYP/6-31G(d,p) 

TD

0 1
12 -7.09235090439044  0.68232647334733  0.18223627222722
 6 -4.82036091719172 -1.97475958725873  0.56671230613061
 6 -4.71393069936994  2.87358168546855  1.27093055025503
 6 -9.41376596539654  3.12610500990099 -0.26204753775378
 6 -9.59276030363036 -1.72443261826183 -0.89631774677468
 7 -5.03551633323332  0.48728998949895  0.80575809620962
 6 -4.31415902120212 -0.69549016941694  0.86637854065407
 6 -2.89918087928793 -0.38015328742874  1.23228867006701
 6 -2.96027631683168  1.05983711621162  1.63182598899890
 6 -4.32758084478448  1.52651303170317  1.22394865606561
 6 -2.96267405840584  1.14737122442244  3.26602012811281
 6 -1.94744902580258 -0.66815082518252  0.13904323012301
 6 -0.43802205620562 -0.47793602500250  0.49635821872187
 6  0.44421379977998 -0.76502993509351 -0.55034668646865
 8  0.12448299799980 -1.13517492129213 -1.73887316761676
 8  1.73476050105011 -0.46595150195020 -0.26355057515752
 7 -7.11391900040004  2.63276468376838  0.45231038783878
 6 -6.08146527752775  3.41941289518952  0.90368835283528
 6 -6.35759374907491  4.75573620402040  0.89575734023402
 6 -7.71901249664966  4.85223511021102  0.44281118811881
 6 -8.12702325552555  3.48998929022902  0.15095543474347
 6 -5.49828560976098  5.88868996029603  1.21354787998800
 6 -8.57129634203420  5.99436450445044  0.21593161506151
 6 -8.21532072987299  7.18130421472147  0.10679641734173
 7 -9.14133916961696  0.63112959125913 -0.42826453175318
 6 -9.82150380938094  1.79522020462046 -0.62205732993299
 6 -11.17242198509851  1.49414040444044 -1.13732848244824
 6 -11.18338685938594  0.17893177047705 -1.29560882708271
 6 -9.94530441414141 -0.38189667776778 -0.77036633953395
 6 -12.26128437053706  2.48431071197120 -1.36740727162716
 6 -12.33782382808281 -0.66471753395340 -1.72179735693569
 6 -12.21805813781378 -1.13128701390139 -3.28636674207421
 7 -7.17312356445645 -1.36568593019302 -0.20602372107211
 6 -8.28038326062606 -2.15003094259426 -0.62436024192419
 6 -7.82176984448445 -3.56753093599360 -0.59327775677568
 6 -6.52499802180218 -3.56438075357536 -0.22342483458346
 6 -6.17769254745475 -2.21807796229623  0.05124674607461
 6 -8.62863320802080 -4.71643446234623 -0.91953150015001
 6 -5.34045058275828 -4.35803178847885  0.10370887078708
 8 -5.19186054785479 -5.51974462806281  0.07381341614161
 6 -4.11498490849085 -3.28676161026103  0.56971786378638
 6 -3.57703206740674 -3.63588967356736  1.92656383608361
 8 -3.77032068666867 -3.10447368016802  3.00809452475248
 8 -2.80293164106411 -4.75705385788579  1.69398748674867
 6 -2.22649528802880 -5.27607807710771  2.90339167616762
 6  2.71545532213221 -0.77313657135714 -1.28044341924192
 6  4.01598492089209 -0.55025887528753 -0.68331085978598
 6  5.10156376377638  0.18236156065607 -1.03900380058006
 6  5.13012042864286  1.07127166346635 -2.21395848694870
 6  6.40627708530853  0.16224503140314 -0.17653433963396
 6  7.72211995089509 -0.23929581148115 -0.94958462716272
 6  8.90829991239124 -0.06378611211121 -0.12451504570457
 6  10.17647854085408 -0.56921401970197 -0.82732912731273
 6  10.05137232343234 -2.04313364826483 -1.23764542604260
 6  11.34096521362136 -0.35117600820082 -0.00387018831883
 6  12.70263743274327 -0.53982049794979 -0.67250779057906
 6  13.95368105590559 -0.06611337453745  0.12587980098010
 6  15.30247559155916 -0.19449206090609 -0.47293034333433
 6  15.75292939513951 -1.57459024482448 -0.99023630343034
 6  16.42714596859686  0.51571595769577  0.44433361806181
 6  17.84664036833684  0.51453957975798 -0.15815409530953
 6  18.82148754825483  1.34970681748175  0.78585094679468
 6  20.17081476127613  1.50299604420442  0.21810141374137
 6  20.33614384328433  2.21156680468047 -1.05278109950995
 6  21.08598647274728  2.19262363176318  1.24099080068007
 1 -4.16496675517552  3.55994437613761  1.89975449644965
 1 -10.21745549724973  3.82957054095410 -0.41918622122212
 1 -10.30042930473047 -2.39675973067307 -1.22757630513051
 1 -2.66603529422942 -0.95494515821582  2.09551679027903
 1 -2.10121975997600  1.68720720932093  1.32154652115212
 1 -2.04817854115412  0.64054954395440  3.84641485488549
 1 -2.91760654685469  2.27528698529853  3.51250581808181
 1 -3.97198818001800  0.54990935863586  3.53072695719572
 1 -2.06570909780978 -1.72006792719272 -0.29782476847685
 1 -2.15117932013201  0.13979607090709 -0.62791789338934
 1 -0.07206430043004  0.56092401590159  0.74992724462446
 1 -0.32977893159316 -1.33748672407241  1.24021689758976
 1 -4.86699886758676  6.31629680478048  0.32027380958096
 1 -5.97024169446945  6.68918871767177  1.61495618481848
 1 -4.72410563936394  5.79328449984999  2.04417809650965
 1 -9.64448194709471  5.80842377847785  0.09220706520652
 1 -9.04706534693469  7.95818440794079 -0.01891129782978
 1 -7.28797383398340  7.46504707390739 -0.26039050965097
 1 -12.60243565636564  2.82178948424842 -2.50605690409041
 1 -13.13230844434443  1.64608024612461 -1.06575009870987
 1 -12.15801276267627  3.33129621502150 -0.54150564856486
 1 -12.08793132123212 -1.56400879907991 -1.01459166706671
 1 -13.11647765136514 -0.25758957195720 -1.43502085908591
 1 -13.05566603280328 -1.81687292649265 -3.39018201590159
 1 -11.96354652865287 -0.16878560446045 -3.72284985998600
 1 -11.24272762036204 -1.75541848584859 -3.54625374087409
 1 -8.76155705160516 -4.58492134043404 -2.09867744914491
 1 -8.16250995199520 -5.83603371157116 -0.76381060916092
 1 -9.65873803960396 -4.75960274727473 -0.41198945514551
 1 -3.25662579457946 -3.43410499499950 -0.06974362736274
 1 -1.49846093609361 -4.57598597589759  3.40933762076208
 1 -3.09734492189219 -5.47198784118412  3.63508073017302
 1 -1.73311473797380 -6.31841601870187  2.77912461536154
 1  2.74074874597460 -1.91284097399740 -1.68226230253025
 1  2.66040774097410  0.07753067146715 -2.01590361016102
 1  3.97204642894289 -1.09130713691369  0.43830620682068
 1  3.95430636693669  1.22058315461546 -2.47326066836684
 1  5.40176347474747  2.10222461266127 -2.14369872447245
 1  5.69718504130413  0.72126245644564 -3.09229052835284
 1  6.31632465576558  1.23495972367237  0.15287278497850
 1  6.22525587358736 -0.34031728062806  0.74549555665567
 1  7.61716545864586 -1.37541861356136 -1.22351648034803
 1  7.65043657465747  0.30320719721972 -1.87100724762476
 1  8.86695279247925  0.99169178567857  0.00579454195420
 1  8.63292111491149 -0.65408376377638  0.87735235383538
 1  10.17096880838084 -0.07072230593059 -1.90674450505051
 1  9.15604210061006 -2.18888593289329 -1.73685864706471
 1  10.73600668536854 -2.26673318591859 -1.93447963396340
 1  10.18405587918792 -2.71508313091309 -0.39385147584758
 1  11.29471423362336  0.64629903740374  0.44855681908191
 1  11.20425083478348 -0.96144848294829  0.89407688068807
 1  12.54852058775878 -1.63710057145715 -1.02169050395040
 1  12.64828373437344  0.08080755975598 -1.57524588838884
 1  13.68107961116112  1.02860611611161  0.47982464296430
 1  13.81621771207121 -0.68063050035004  1.00268543824382
 1  15.26180857295730  0.29282914331433 -1.42502216171617
 1  15.81181318231823 -2.19904663056306 -0.07831542914291
 1  14.99907743954395 -2.01449964356436 -1.69797751815181
 1  16.68717677627763 -1.62271620022002 -1.52390449924992
 1  16.10745595529553  1.56221529422942  0.79237265826583
 1  16.63752545454546  0.11712531683168  1.52494542624262
 1  18.28635782768277 -0.51864882868287 -0.12142815041504
 1  18.05274535573557  1.02002326082608 -1.11035451935194
 1  18.37011569436944  2.32614451405141  0.99818491939194
 1  18.85352162956296  0.78896250755075  1.78465481708171
 1  20.76517658435844  0.50581701750175  0.07019476987699
 1  19.96295312861286  3.22809179407941 -1.10207047654765
 1  21.31652776667667  2.26157203510351 -1.52594384838484
 1  19.62188302150215  1.65548695099510 -1.73494391769177
 1  21.03525354065406  1.76920622442244  2.27172661426143
 1  22.34238887938794  2.18026655785579  0.98467273347335
 1  20.95029756235624  3.42504618081808  1.44958088928893

