%nproc=4
%Mem=2GB
# td=(NStates=1) CAM-B3LYP/6-31G(d,p) 

TD

0 1
12 -7.17751942124212  0.61976021672167  0.19453750235024
 6 -4.83190207130713 -1.92694480578058  0.53322895779578
 6 -4.89000830713071  2.79300362766277  1.26413987118712
 6 -9.37587217601760  3.06938933833383 -0.33265459845985
 6 -9.55435646324633 -1.80707088208821 -0.89980809580958
 7 -5.17418019961996  0.42317357785779  0.75005252565257
 6 -4.30421802710271 -0.68426904730473  0.82490439323932
 6 -2.88626958815882 -0.30295556765677  1.32882832403240
 6 -3.01991228042804  1.13605473797380  1.71262406880688
 6 -4.43414150085009  1.46808718911891  1.20831709290929
 6 -2.83705149614961  1.39827631493149  3.25820934703470
 6 -1.94225850675068 -0.58098210831083  0.09415874167417
 6 -0.44176243024302 -0.24833306470647  0.45656423932393
 6  0.51886126452645 -0.59341277337734 -0.61370302210221
 8  0.15057560726073 -0.89413081688169 -1.77695697599760
 8  1.81654867986799 -0.42740764756476 -0.16417063716372
 7 -7.18165577407741  2.58490989828983  0.37649280608061
 6 -6.11022815381538  3.25202615651565  0.93738172217222
 6 -6.42933092279228  4.75615624602460  0.93878164266427
 6 -7.69693028842884  4.85348523522352  0.38941584858486
 6 -8.18486904010401  3.46852714401440  0.14893523272327
 6 -5.67462324352435  5.80571166246625  1.43877040224022
 6 -8.52933214561456  5.98304337233723  0.21628165006501
 6 -8.32971216901690  7.25626171047105 -0.09773403570357
 7 -9.06389142484248  0.67122360066007 -0.50803250855086
 6 -9.88286994599460  1.74825550815082 -0.64953007720772
 6 -11.31731647454746  1.37242823322332 -1.07030177977798
 6 -11.22103062376238 -0.01689781248125 -1.31950121632163
 6 -9.92122200590059 -0.38517700580058 -0.80853015591559
 6 -12.38589683178318  2.26571885278528 -1.37188771967197
 6 -12.33266331203120 -0.89633069526953 -1.62749792699270
 6 -12.17984431643164 -1.36577046224623 -3.11386949234924
 7 -7.23827007910791 -1.42321168276828 -0.15012813151315
 6 -8.24302952525253 -2.28843478297830 -0.51179898579858
 6 -7.71923959145915 -3.65884006690669 -0.56594502350235
 6 -6.40407592959296 -3.54738905440544 -0.10897338943894
 6 -6.13102788098810 -2.11660781528153  0.13065468686869
 6 -8.57950829552955 -4.88168098699870 -0.77877742474247
 6 -5.27019355705571 -4.24861084638464  0.12103060296030
 8 -5.16690805260526 -5.50713336693669  0.12441847664766
 6 -4.12083549354935 -3.24128706280628  0.47902879487949
 6 -3.53455781998200 -3.65380146474647  1.80240141984198
 8 -3.70355401000100 -3.12030526332633  2.90083379867987
 8 -2.70750209810981 -4.66205435793579  1.65397348534853
 6 -1.95832847134713 -5.05315578487849  2.87242857985799
 6  2.82708648524852 -0.59188844654465 -1.18778415331533
 6  4.14250757315732 -0.41050489988999 -0.61802433113311
 6  5.10866447384738  0.47575089958996 -1.07268716891689
 6  5.05205262186219  1.43205774207421 -2.10843793489349
 6  6.43181963956396  0.57128593549355 -0.25686237243724
 6  7.59314705360536  0.01601972007201 -1.12259192789279
 6  8.96564564696470 -0.11690142364236 -0.26746934113411
 6  10.20297119011901 -0.52444954325433 -0.99827622202220
 6  9.97613479967997 -1.97351668656866 -1.35547720922092
 6  11.30449156625663 -0.29207009760976 -0.08976877817782
 6  12.76942411141114 -0.52398891479148 -0.77355789558956
 6  13.92933862166217 -0.20431719491949  0.20604781778178
 6  15.27201254525453 -0.24532714441444 -0.48387143744374
 6  15.64359846204620 -1.70505329112911 -0.81196847664766
 6  16.37697095109511  0.26588097419742  0.48765795049505
 6  17.86053175747575  0.49901802760276 -0.15786406630663
 6  18.85320071957196  1.07605945274527  0.89716207790779
 6  20.23794147394739  1.27361310591059  0.26606621022102
 6  20.27973820272027  2.12138778677868 -1.01919774117412
 6  21.20991886598660  1.71416578597860  1.37240394199420
 1 -3.96820707920792  3.58379676137614  1.26894141514151
 1 -9.94408816051605  4.00668825272527 -0.59480378297830
 1 -10.24263352515251 -2.40211026572657 -1.39938348584858
 1 -2.62937162786279 -0.85045470917092  2.13173041164116
 1 -2.16752639063906  1.70619910851085  1.13409777627763
 1 -1.99313303660366  0.90211570057006  3.62290250365037
 1 -3.01154594079408  2.48258771537154  3.34793936143614
 1 -3.90156113731373  1.11139550725073  3.64185807030703
 1 -2.02421494839484 -1.56983290369037 -0.03002798879888
 1 -2.43285748794879  0.01776386768677 -0.74225932753275
 1 -0.27835492949295  0.91422934643464  0.55128738063806
 1 -0.21620757445745 -0.76688966436644  1.53416629252925
 1 -4.79144131183118  6.23668884398440  0.71385316751675
 1 -6.16769143944394  6.65792559135914  1.85358004720472
 1 -5.10296352515252  5.35081025242524  2.18551222992299
 1 -9.55311281018102  5.74478741484148  0.22586043054305
 1 -8.93383402380238  8.13146173567357 -0.09386879357936
 1 -7.14535957255726  7.48310888008801 -0.11881635223522
 1 -12.20990640344034  2.82054936023602 -2.20958725712571
 1 -13.28838405190519  1.71519715781578 -1.63748727242724
 1 -12.62892985438544  2.94100718611861 -0.60679217721772
 1 -12.39380190829083 -1.71419381758176 -0.84415462336234
 1 -13.39338534213421 -0.55945975897590 -1.53738109510951
 1 -13.01289175537554 -2.03499473867387 -3.42977597529753
 1 -12.41953212721272 -0.38572729862986 -3.88874644964496
 1 -11.18123147074708 -1.84564750875088 -3.37387650315031
 1 -9.21068196409641 -4.71649449774977 -1.72714029542954
 1 -7.88741244224423 -5.79001911011101 -0.89002323042304
 1 -9.25898806460646 -4.99359614661466  0.14921666546655
 1 -3.50164029602960 -3.38330991549155 -0.46654330733073
 1 -1.61926301630163 -4.08925730303030  3.39588627562756
 1 -2.78594378177818 -5.42196283868387  3.51724894699470
 1 -1.40006143264326 -5.95297947504750  2.62723942684268
 1  3.05417008810881 -1.54170386028603 -1.52748682498250
 1  2.49404110431043  0.00513343174317 -2.04628664846485
 1  4.26278550285029 -0.97620562676268  0.24537691389139
 1  4.09734067036704  1.57134823112311 -2.55152849514952
 1  5.21417471587159  2.58641303150315 -1.80818517311731
 1  5.72682800560056  1.21401173137314 -2.90871217051705
 1  6.73467649094910  1.65800202790279 -0.13775627792779
 1  5.99906325432543  0.29034578567857  0.78044905200520
 1  7.50625436753675 -1.05809688138814 -1.65877000570057
 1  7.90170170117012  0.58425530203020 -2.01036118301830
 1  8.98080417761776  0.86276889338934  0.30833479597960
 1  8.66521434423442 -1.01245960136014  0.40632525112511
 1  10.21892360386039  0.10596536283628 -1.89383321392139
 1  9.33004950135014 -2.18249529382938 -2.16868182938294
 1  10.78548163286329 -2.15680219281928 -2.06171235723572
 1  9.67961543514351 -2.71337295989599 -0.60760285098510
 1  11.22801756395639  0.63889829732973  0.55964792819282
 1  11.19090950065006 -1.08106044414441  0.74066153915392
 1  12.81578731443144 -1.62767962936294 -1.14314264916492
 1  12.83090199619962  0.20872035103510 -1.75286365016502
 1  13.67768927212721  0.86630988648865  0.43609026952695
 1  14.07590368066807 -0.76174861216122  1.13652882258226
 1  15.26521891399140  0.31771163156316 -1.44861452095210
 1  15.45808780978098 -2.29915664156416  0.07325972837284
 1  15.04467199899990 -2.12287048064806 -1.68917663806381
 1  16.66528458705871 -1.91221515011501 -0.92133424222422
 1  15.89383459315931  1.30380945364536  0.91544496549655
 1  16.31322302430243 -0.29273566926693  1.58520145184518
 1  18.18519771167117 -0.49587655145515 -0.36429243684368
 1  17.81266134733474  1.16088734723472 -1.21997548144815
 1  18.43661234403440  1.97849974957496  1.30023512441244
 1  18.87233351075107  0.34629824112411  1.81125747734773
 1  20.67062712941294  0.42474891069107  0.13864161456146
 1  19.91956879017902  2.96299528442844 -0.65989625912591
 1  21.29685579947995  2.38781465936594 -1.39659091309131
 1  19.65592642584258  1.94214561686169 -1.84074449774977
 1  21.37362737803780  0.75655495929593  2.11329077067707
 1  22.23963860436044  1.98078660986099  0.74824909110911
 1  20.91924445704571  2.77690136633663  1.89624555575558

