%nproc=4
%Mem=2GB
# td=(NStates=1) CAM-B3LYP/6-31G(d,p) 

TD

0 1
12 -7.12083375267527  0.55314355505551  0.22664071267127
 6 -4.90732961406141 -1.91826393769377  0.55259089398940
 6 -4.79664897119712  2.75296962426243  1.20833429062906
 6 -9.47365195399540  3.16326872627263 -0.30121145414541
 6 -9.50028105570557 -1.74113428842884 -0.88136625162516
 7 -5.12506528812881  0.45272653315332  0.79174669506951
 6 -4.38475608090809 -0.69178979937994  0.81076297909791
 6 -2.93008396959696 -0.41528680078008  1.22692813401340
 6 -2.99345963516352  1.09480061256126  1.68115092149215
 6 -4.34400248694870  1.53075345574557  1.18378463966397
 6 -2.78518630963096  1.29211569886989  3.18667219331933
 6 -1.93520780168017 -0.66515052515251  0.13372269806981
 6 -0.52633088708871 -0.39951818321832  0.38671725462546
 6  0.48271765016502 -0.72543597569757 -0.63510516231623
 8  0.23118366806681 -0.95960736453645 -1.79859914021402
 8  1.77203422842284 -0.52173708050805 -0.22789700980098
 7 -7.14387199569957  2.57222863016302  0.47804296109611
 6 -6.15719285028503  3.34747570147015  0.86683466746675
 6 -6.38940693039304  4.70591122152215  0.96011377587759
 6 -7.74737533293329  4.83131301800180  0.44304121112111
 6 -8.16234678787879  3.45841613291329  0.17254759395940
 6 -5.52109789098910  5.80126121742174  1.34237076227623
 6 -8.63763297569757  5.93776884488449  0.31585160706071
 6 -8.28032723052305  7.17243332763276 -0.03311757405741
 7 -9.04758979467947  0.67283376167617 -0.45848755405541
 6 -9.84163582258226  1.77988867146715 -0.61350647484748
 6 -11.22229697259726  1.53194418481848 -1.05381013061306
 6 -11.30553907460746  0.21348522582258 -1.37164643084308
 6 -9.94650453415342 -0.33982247034703 -0.90094939783978
 6 -12.31773001510151  2.44422670357036 -1.46556708760876
 6 -12.32524256995699 -0.78536959915992 -1.83232841004100
 6 -12.16807313931393 -1.04049793499350 -3.35718382378238
 7 -7.18687493959396 -1.34771413301330 -0.12088520722072
 6 -8.25276049834984 -2.17732367186719 -0.56765457135714
 6 -7.83899156665667 -3.62363654655466 -0.50190861986199
 6 -6.51498702070207 -3.54080839633963  0.03789129702970
 6 -6.18170294849485 -2.22505866036604  0.11261288268827
 6 -8.51405174987499 -4.85955877477748 -0.91694124112411
 6 -5.35688222592259 -4.35363134843484  0.43368186808681
 8 -5.24827618941894 -5.54753740734073  0.39264529932993
 6 -4.23559696969697 -3.39011194529453  0.64920581258126
 6 -3.46307067126713 -3.69296538113811  1.88650983068307
 8 -3.71612526712671 -3.02878611141114  2.95547926322632
 8 -2.71426277417742 -4.72894104660466  1.73877196519652
 6 -2.18251088958896 -5.27090756005601  2.96284762176218
 6  2.80077385398540 -0.76342560026003 -1.29986536143614
 6  4.15618894129413 -0.45327917731773 -0.60432296099610
 6  5.10447405480548  0.40579390389039 -1.01687158735874
 6  5.04216163276328  1.18112264856486 -2.29365645674567
 6  6.46290274787479  0.48043685058506 -0.30826751295130
 6  7.66981472037204 -0.23580546244624 -1.02545221392139
 6  8.94670375277528 -0.17895762926293 -0.15232782698270
 6  10.20857175017502 -0.61391849014901 -1.00263665806581
 6  10.02522970917092 -2.02012134703470 -1.50551221272127
 6  11.41556267336734 -0.38940983158316 -0.13673347464746
 6  12.79354652365237 -0.55066158205821 -0.84402494229423
 6  13.97033272107211 -0.02860962416242 -0.04619740674067
 6  15.29478482248225 -0.00938355005501 -0.64083713401340
 6  15.75496959915992 -1.46874966076608 -1.11802908270827
 6  16.28722197619762  0.54360874697470  0.42628181288129
 6  17.77151285558556  0.63941206700670 -0.10246852675268
 6  18.82128752825282  1.13288513531353  0.98437079877988
 6  20.15085276507651  1.35085082968297  0.41672127572757
 6  20.22040226912691  2.20450609860986 -0.77937375877588
 6  21.23345121922192  1.82224659405941  1.46743344494449
 1 -4.07653791229123  3.45488387008701  1.54604912591259
 1 -10.04579833153315  3.96271385528553 -0.40067437003700
 1 -10.12194145594559 -2.57446750145014 -1.32948649614961
 1 -2.76155484618462 -1.18056772047205  2.13474071267127
 1 -2.46740637863786  1.86964545314531  1.27051141764176
 1 -1.91018474177418  1.07494298329833  3.59901011441144
 1 -2.86024081028103  2.30070952755276  3.52407697519752
 1 -3.26686766796680  0.66802116981698  3.76964084858486
 1 -2.02720524742474 -1.60497641804180 -0.44917990399040
 1 -2.00085428762876  0.04924701600160 -0.79186428802880
 1 -0.35532262626263  0.71570949444944  0.83219547144714
 1 -0.26263221692169 -1.08039101450145  1.29738261416142
 1 -4.76871903960396  6.12128730383038  0.40217199939994
 1 -6.08410308060806  6.74208400720072  1.47488217741774
 1 -4.88187141594159  5.78673384478448  2.20022370107011
 1 -9.62950044894489  5.95608854495450  0.47645549004901
 1 -9.01682232263226  7.88078666816682 -0.02623202990299
 1 -7.33897893449345  7.58976954615462 -0.29467393799380
 1 -11.83511892469247  2.84790209550955 -2.51442774117412
 1 -13.15754096759676  1.81771740984098 -1.74984850855086
 1 -12.25259222062206  3.40091317671767 -0.72781427942794
 1 -12.35607813591359 -1.47176957515752 -1.20706091399140
 1 -13.16952295589559 -0.11617543054305 -1.70927828482848
 1 -13.01685215141514 -1.59230046924692 -3.56452945064506
 1 -12.21106128012801 -0.08475720162016 -3.88391596659666
 1 -11.21599494709471 -1.67496044004400 -3.58062717821782
 1 -8.73227412331233 -4.62571541984198 -1.84677225862586
 1 -7.85537923892389 -5.54906501470147 -1.07813204130413
 1 -9.41545371117112 -4.91516830383038 -0.12817107330733
 1 -3.66049618161816 -3.25809739423942 -0.30334698769877
 1 -1.71766285628563 -4.49591796909691  3.56683337033703
 1 -3.11655684308431 -5.60995163756376  3.63480070217022
 1 -1.55572699919992 -5.97150132723272  2.76848355125512
 1  2.74211888298830 -1.88458814871487 -1.59300337663766
 1  2.53900560076008 -0.09891697329733 -2.06981900170017
 1  4.30569979427943 -1.07130513671367  0.29579195539554
 1  3.95743667996800  1.40901199749975 -2.74032737503750
 1  5.35752905130513  2.14545893609361 -2.06412076667667
 1  5.85436075887589  0.70472080228023 -2.85644694399440
 1  6.67701072437244  1.49154538223822  0.24995249294929
 1  6.37450079807981 -0.01904515341534  0.59638064516452
 1  7.17643138523852 -1.21956302800280 -1.22315644434443
 1  7.79716124712471  0.19717659415942 -2.00682082898290
 1  9.11260735793579  0.90591320782078  0.25948991149115
 1  8.82631045384538 -0.70372872827283  0.88118273687369
 1  10.29138084958496  0.10749551585159 -1.88349217981798
 1  9.18866536293629 -2.11262830713071 -2.38636359755976
 1  11.00121320602060 -2.35923243584358 -1.82193837983798
 1  9.65670314391439 -2.83918554115412 -0.92701479217922
 1  11.39003376557656  0.80910531803180  0.05612757615762
 1  11.29166957665766 -0.87156949504951  0.75713318631863
 1  12.80831656735674 -1.70846770817082 -1.02244057895790
 1  12.70949985598560 -0.24147466846685 -1.82734109790979
 1  13.58191969516952  0.95842909840984  0.31248790929093
 1  14.05008109840984 -0.58608104540454  0.89794496419642
 1  15.35258765086509  0.59011887228723 -1.34776443594359
 1  15.76885888688869 -2.06314304020402 -0.33907150475047
 1  15.03246077787779 -1.95418361196120 -1.79210693109311
 1  16.81385944454446 -1.38231215981598 -1.56980908970897
 1  16.03011822152215  1.50826989968997  0.82109553055306
 1  16.50816251825183  0.00387399169917  1.30818375007501
 1  18.06746593849385 -0.42111907570757 -0.35388139573957
 1  17.80840092129213  0.99248050655066 -1.06441992589259
 1  18.47369605240524  2.10915281488149  1.40039514041404
 1  18.76621289868987  0.22462607390739  1.97740409200920
 1  20.53732379907991  0.44842127792779 -0.07559980958096
 1  19.92539937323733  3.30808979387939 -0.43931420092009
 1  21.13195930983098  2.17412329022902 -1.30821207520752
 1  19.47411824502450  2.12527392969297 -1.56937736103610
 1  21.34282429772977  1.24925422922292  2.41407084868487
 1  22.38566320682068  1.56781531273127  0.94942920912091
 1  21.02845537813781  2.82268594479448  1.89553548474847

