%nproc=4
%Mem=2GB
# td=(NStates=1) CAM-B3LYP/6-31G(d,p) 

TD

0 1
12 -7.13433510281028  0.61369961066107  0.12325037363736
 6 -4.90929981108111 -1.92278438973897  0.51853748864886
 6 -4.86186549284928  2.88052237953795  1.25423888108811
 6 -9.45188977777778  3.18097049644964 -0.41180251325133
 6 -9.55426645424542 -1.69799997499750 -0.75391350635063
 7 -5.05365814741474  0.49337059755976  0.61478899929993
 6 -4.29231683698370 -0.66583720412041  0.74416631943194
 6 -2.88503946514651 -0.40519579167917  1.25204064526453
 6 -3.07059734893489  1.11127225972597  1.74749755615562
 6 -4.44793287998800  1.55990637103710  1.15489175037504
 6 -3.12070986198620  1.12821930923092  3.28871239733973
 6 -1.83055733663366 -0.44723873397340 -0.00079075327533
 6 -0.36993524752475 -0.43544177557756  0.46134471737174
 6  0.49847922632263 -0.69359279137914 -0.78621027282728
 8  0.27189773947395 -1.10020142394239 -1.89607888818882
 8  1.84437146214621 -0.47229213601360 -0.36831105120512
 7 -7.12241985048505  2.59913132043204  0.31353651045105
 6 -6.14437156815682  3.51857281118112  0.84550253425343
 6 -6.50863885358536  4.79605023542354  0.97679544404440
 6 -7.86712730813081  4.83832371907191  0.56734364136414
 6 -8.20660121332133  3.54297458875888  0.15561590079008
 6 -5.63061884308431  5.89923101440144  1.42201872707271
 6 -8.80891010341034  5.98317338533853  0.37603762566257
 6 -8.39241843964396  7.32000808510851  0.21135687338734
 7 -9.20090512621262  0.71523800210021 -0.50589229452945
 6 -9.97655931493149  1.82644332693269 -0.64353947814781
 6 -11.25816055895590  1.46755774617462 -1.09078382798280
 6 -11.20828934963496  0.11780565786579 -1.32862212841284
 6 -9.92372225592559 -0.34716320442044 -0.87749705260526
 6 -12.43296153825383  2.41613389428943 -1.45079561046105
 6 -12.26409645534553 -0.75103616581658 -1.65477065426543
 6 -12.22251858385839 -1.28789267446745 -3.15205331073107
 7 -7.22828908100810 -1.43454281588159 -0.18559167786779
 6 -8.29636485878588 -2.24108004750475 -0.45524333023302
 6 -7.81894956245625 -3.62315649854985 -0.47473590259026
 6 -6.51107662966297 -3.61185550105010 -0.02086457855786
 6 -6.17205198339834 -2.20005616011601  0.01988360976098
 6 -8.75183552825282 -4.76897971687169 -0.74824437143714
 6 -5.32941947964796 -4.39114509980998  0.23567206710671
 8 -5.11997335913591 -5.56762941654165  0.20519655445545
 6 -4.15858926892689 -3.31548448254825  0.60133102510251
 6 -3.52750711491149 -3.69433551815182  1.89033021272127
 8 -3.59022267686769 -3.05916914971497  2.93474719001900
 8 -2.72202355025503 -4.75269342184218  1.72976106410641
 6 -2.15558819731973 -5.23847431673167  2.94668600560056
 6  2.84034781138114 -0.62607186488649 -1.38357373227323
 6  4.14204752715272 -0.38468231763176 -0.77958048674868
 6  5.23079668706871  0.23639696419642 -1.09267916811681
 6  5.13884130073007  1.15072960926093 -2.33841093219322
 6  6.45401185878588  0.25088389528953 -0.33564025022502
 6  7.62031977087709 -0.25386726862686 -1.03086275497550
 6  8.87969705210521 -0.26895662916292 -0.16020861506151
 6  10.15384627762776 -0.52405950425042 -0.84361075547555
 6  10.21089827602760 -1.98841817671767 -1.34123578507851
 6  11.46329744684468 -0.20386127672767  0.08047824652465
 6  12.82471964096410 -0.49644616051605 -0.64545508530853
 6  14.01999768756876 -0.02896966016602  0.20295750875088
 6  15.40596594059406 -0.14005661736174 -0.60102315261526
 6  15.67275137733773 -1.56570935673567 -0.94806208600860
 6  16.45353860786079  0.45757014311431  0.37312649734974
 6  17.89912561686169  0.51097922372237 -0.10901918181818
 6  18.81615701520152  1.17349919671967  0.90052241394139
 6  20.30487816761676  1.30038578317832  0.34149375297530
 6  20.44730495939594  2.10352600060006 -0.96156197759776
 6  21.18885675977598  1.97583195259526  1.43089979157916
 1 -4.02952321082108  3.59840822252225  1.44048856985699
 1 -10.10719447114711  4.00637822172217 -0.82087639023902
 1 -10.35198446024602 -2.61562161686169 -1.08033158065807
 1 -2.59424811551155 -1.12974263796380  2.19942718131813
 1 -2.32285192319232  1.96350483908391  1.37866223272327
 1 -2.21554527782778  1.05871136013601  3.81962217561756
 1 -3.28465325152515  2.11037049364937  3.65768033553355
 1 -3.79143012421242  0.49477384508451  3.67686157065707
 1 -1.83065559245925 -1.41009693009301 -0.47261224722472
 1 -2.10743494569457  0.48976106740674 -0.62970807240724
 1  0.06349925592559  0.39456738023802  0.74741699359936
 1 -0.33540949464947 -1.37700067546755  1.01557443334333
 1 -4.94184635233523  6.19821499659966  0.51224300650065
 1 -6.36808147844785  6.56597639643964  1.85469015821582
 1 -4.98478170697070  5.69361453285329  2.12147582628263
 1 -9.85028252715271  5.84184712081208  0.46323416791679
 1 -9.08518915931593  8.05618420792079  0.01314190749075
 1 -7.20953599019902  7.45637620682068  0.09487501690169
 1 -11.95801121392139  3.19757706300630 -2.00429672807281
 1 -13.11584679817982  1.74494013211321 -2.20465398909891
 1 -13.11943890529053  2.90874395979598 -0.38706020402040
 1 -12.21282381048105 -1.60174257245725 -1.08884909280928
 1 -13.19848585218522 -0.30244405740574 -1.59631698869887
 1 -13.07407787398740 -2.04540577977798 -3.24644764246425
 1 -12.22248242224222 -0.57766649254926 -3.66000357535754
 1 -11.29431277887789 -1.83357630163016 -3.33945306080608
 1 -9.22333322922292 -5.05193804210421 -1.84233181458146
 1 -8.46122982398240 -5.69499960816082 -0.59348357645765
 1 -9.61841400720072 -4.60657744474447  0.07920966476648
 1 -3.43702383438344 -3.41463304780478 -0.11009766276628
 1 -1.68416950695070 -4.35627400470047  3.69943663066307
 1 -2.98811399879988 -5.76687733013301  3.51913913601360
 1 -1.45277670417042 -5.99228340544054  2.65812251515152
 1  2.73562823392339 -1.63815350525052 -1.65517959425943
 1  2.56685838603860 -0.09700678227823 -2.35287730753075
 1  4.18938816311631 -1.03755176137614  0.17458983518352
 1  4.21196213251325  1.26650774707471 -3.06468981128113
 1  5.64130742914291  2.02364675487549 -1.96031038563856
 1  6.00273559635964  0.70703103330333 -3.02971427072707
 1  6.67446046934693  1.30501672937294  0.06867436513651
 1  6.18280162816282 -0.31996524542454  0.48698970607061
 1  7.46244998709871 -1.36131720342034 -1.18906303500350
 1  7.77036856785679  0.23316019251925 -1.97985813271327
 1  8.96342243944394  0.77607022352235  0.32561652415242
 1  8.57312513531353 -0.95267362276228  0.70299491809181
 1  10.13037474897490  0.33265803210321 -1.71361519211921
 1  9.18760525692569 -2.23808085238524 -1.81684664586459
 1  11.16307939263926 -2.46786329892989 -1.96273245924592
 1  10.34641211481148 -2.69964158675868 -0.48969105980598
 1  11.38527328952895  0.96460086758676  0.33171513491349
 1  11.37179758945894 -0.70581291939194  1.14524199719972
 1  12.83812954865487 -1.56122298369837 -1.00514884978498
 1  12.78360726672667 -0.06726724772477 -1.69995835963596
 1  13.67433893709371  0.98772202770277  0.41396805730573
 1  13.96993308360836 -0.73629606690669  0.89026419611961
 1  15.36559895199520  0.56496635703570 -1.45055471497150
 1  15.71160316131613 -2.08130485638564  0.12312471487149
 1  15.05829336113611 -2.05527372097210 -1.54354207460746
 1  16.60442850145015 -1.68199212781278 -1.78393050185018
 1  16.14824003370337  1.52318139083908  0.48427184818482
 1  16.26829853185319 -0.14193058875888  1.29841277297730
 1  18.29846903880388 -0.57397436123612 -0.26015202280228
 1  18.09006908810881  1.35645690419042 -0.92763624752475
 1  18.62506118891889  2.24216611621162  1.19902500340034
 1  18.72576885428543  0.53017662896290  1.69251560316032
 1  20.78181824852485  0.34831126692669 -0.00171242084208
 1  19.87170400370037  2.99653863876388 -0.80065033453345
 1  21.53761987588759  2.22354823272327 -1.17628888288829
 1  19.94369520272027  1.43398480078008 -1.81913233653365
 1  21.01137115241524  1.61073037683768  2.37809725132513
 1  22.16803144364436  2.01522005320532  1.21422568876888
 1  20.74975750835084  3.02990666686669  1.38541447264726

