%nproc=4
%Mem=2GB
# td=(NStates=1) CAM-B3LYP/6-31G(d,p) 

TD

0 1
12 -7.18077974727473  0.61218945964596  0.01602965156516
 6 -4.81116999809981 -1.89060117141714  0.35513114801480
 6 -4.83860316661666  2.77926225352535  1.19120257745775
 6 -9.46868145694569  3.04622702210221 -0.33711504450445
 6 -9.54205523312331 -1.63319349434944 -0.83760187518752
 7 -5.12043482508251  0.48307956845685  0.58620614101410
 6 -4.32227983328333 -0.72763338373837  0.69787168996900
 6 -2.86588754995500 -0.41441671377138  1.19904534573457
 6 -3.13933422262226  1.09830096259626  1.61120392679268
 6 -4.47742582928293  1.47426780718072  1.15457171837184
 6 -2.83625141614161  1.47013350065007  3.14707823392339
 6 -1.89656393729373 -0.56879088918892  0.02789211501150
 6 -0.38600685468547 -0.42358058945895  0.48888747164716
 6  0.60987036543654 -0.77695112721272 -0.57414906670667
 8  0.28178872857286 -0.99058046184618 -1.77877715801580
 8  1.85204222922292 -0.63904881168117 -0.08765298539854
 7 -7.09270687918792  2.61956336363636  0.27607276407641
 6 -6.12416954795480  3.29756070997100  0.82731071507151
 6 -6.47597558725873  4.69317994839484  0.81059882438244
 6 -7.76922751815182  4.84486437313731  0.51497840484048
 6 -8.19810036323632  3.49977026832683 -0.02207186798680
 6 -5.56128190939094  5.83691478277828  1.29333585878588
 6 -8.71606081848185  6.03442851085109  0.47028705060506
 6 -8.33866306410641  7.32577866216622  0.03986972467247
 7 -9.08585362106211  0.65505198349835 -0.56209791509151
 6 -9.92081374037404  1.79247993059306 -0.67147227142714
 6 -11.24060880378038  1.40954194459446 -1.01822657225723
 6 -11.21517003770377  0.03354723202320 -1.12525179137914
 6 -9.86474635833583 -0.45360384848485 -0.78005730863086
 6 -12.36885512761276  2.32910519141914 -1.19809033993399
 6 -12.29801984768477 -0.74534559675968 -1.62932811001100
 6 -12.43842017401740 -0.99086297149715 -3.12500060546055
 7 -7.14518077017702 -1.37796715831583 -0.19291240994099
 6 -8.24700992329233 -2.22258819831983 -0.49752755865587
 6 -7.86675434293429 -3.61952613551355 -0.52835126412641
 6 -6.52483800580058 -3.59079339483948 -0.10333282538254
 6 -6.16061083928393 -2.18105425992599 -0.00203858245825
 6 -8.68966931163116 -4.86865968486849 -0.88898844584458
 6 -5.30642718041804 -4.41931791709171  0.22311081098110
 8 -5.25997735953595 -5.58112076567657  0.17005304010401
 6 -4.10293370337034 -3.32544547864786  0.51027191919192
 6 -3.59533389758976 -3.69198528312831  1.87072825252525
 8 -3.84343799839984 -3.14827806060606  2.91662537783778
 8 -2.70678202610261 -4.73773192569257  1.82075016301630
 6 -2.03105574407441 -5.08065853515352  3.02750408740874
 6  2.75522929952995 -0.73059231693169 -1.10322569746975
 6  4.22163548594860 -0.51059490889089 -0.48444097279728
 6  5.10964457185719  0.37837116161616 -0.95329522972297
 6  5.06043345994599  1.39290382668267 -2.17848493959396
 6  6.45734219181918  0.47243605050505 -0.30392707890789
 6  7.71214895379538  0.04236235433543 -1.08852852155216
 6  8.91978106050605 -0.14012374587459 -0.21157375157516
 6  10.20937183018302 -0.51609870817082 -0.96009240364036
 6  10.15247243344334 -1.95753508840884 -1.44869653115312
 6  11.40464158125813 -0.29327021762176  0.03958415711571
 6  12.67939510851085 -0.57042355825583 -0.59131967176718
 6  13.89718540634063 -0.06716347954795  0.18879609260926
 6  15.25372071607161 -0.23581619331933 -0.45335838613861
 6  15.64380848304831 -1.68482126792679 -0.93027030683068
 6  16.39442269626963  0.40979536563656  0.42119130383038
 6  17.87901360566057  0.57274540034003 -0.20055833573357
 6  18.84147954745475  1.24869671647165  0.75995835753575
 6  20.28934661446145  1.34466021062106  0.22380198379838
 6  20.41216144504450  2.20023567156716 -1.01479730113011
 6  21.23889176327633  1.74748911831183  1.45285198679868
 1 -4.19398965746575  3.48649703140314  1.39837435843584
 1 -10.30029378107811  3.61253883778378 -0.12688699129913
 1 -10.07114637643764 -2.43622367706771 -1.43333688118812
 1 -2.50537922862286 -1.07488715241524  2.18847608620862
 1 -2.50718035603560  1.60093858245825  1.12451681818182
 1 -1.91195491879188  1.13467895689569  3.42930314371437
 1 -3.30481526772677  2.44444390099010  3.29745431293129
 1 -3.46332731393139  0.65107947564756  3.79101298579858
 1 -1.90969349624962 -1.60589651005100 -0.42229721572157
 1 -2.16694089628963  0.03250534183418 -0.74175927752775
 1 -0.08568566256626  0.68572649614962  0.75420767266727
 1 -0.15465141884188 -1.22306528192819  1.22189506540654
 1 -4.82896506420642  6.28015319041904  0.51041282348235
 1 -6.11161583188319  6.67848764756476  1.74584927412741
 1 -4.75767899669967  5.54596976837684  1.92188586728673
 1 -9.63364086298630  5.53166610271027  1.04499234373437
 1 -9.03171381178118  8.10903949344934  0.04055464876488
 1 -7.29074411101110  7.63908447764777 -0.20227469806981
 1 -12.23170858365837  3.12473977927793 -2.03895019341934
 1 -13.44663987748775  1.89391502960296 -1.45844936863686
 1 -12.62812977437744  2.85039812521252 -0.22109360736074
 1 -12.21794432253225 -1.74632703090309 -1.07975818371837
 1 -13.20514651825182 -0.35310912391239 -1.21269862686269
 1 -13.12565303150315 -1.68900013921392 -3.47153015071507
 1 -12.35999617361736  0.13792506660666 -3.66020359535954
 1 -11.54856820442044 -1.41685462946295 -3.41708082358236
 1 -8.92310320622062 -4.99155200350035 -1.85463304470447
 1 -7.95605930693069 -5.59922003020302 -0.79696392449245
 1 -9.53925609140914 -5.08908569556956 -0.22627088328833
 1 -3.51648178017802 -3.49875145964596 -0.25841249424942
 1 -1.46860795079508 -4.26056443374337  3.59010569756976
 1 -2.94348953635364 -5.46712735513551  3.53265048714871
 1 -1.26978840534053 -5.85042922002200  2.93383008590859
 1  2.83377804890489 -1.77243693359336 -1.47169124542454
 1  2.55278697889789 -0.16603368496850 -2.01789380918092
 1  4.29869909420942 -1.19194720092009  0.33315569176918
 1  4.14008494479448  1.75004610091009 -2.73210655295529
 1  5.38852215061506  2.47557194739474 -1.86350070467047
 1  5.67085240804080  1.05661599179918 -2.85833713301330
 1  6.42503552685269  1.51921814951495  0.21401889958996
 1  6.44865821382138 -0.06555980488049  0.75831683878388
 1  7.26851059315932 -0.72633370507051 -1.57260138883888
 1  7.70993252425243  0.76671354785479 -2.03639378627863
 1  9.03604970217022  0.87270988748875  0.18142210471047
 1  8.83408123092309 -0.79598795419542  0.68696331493149
 1  10.32938464996500  0.27173193949395 -1.80270410101010
 1  9.18689518591859 -2.19367641194119 -1.99311427262726
 1  11.08956204090409 -2.15587209980998 -1.86012219821982
 1  10.22131960556056 -2.67788941154115 -0.67800989168917
 1  11.26832159435943  0.63634804230423  0.46284824822482
 1  11.22170257995800 -0.97490982908291  0.80108758175818
 1  12.91450718641864 -1.63288014941494 -0.80729906480648
 1  12.84541344734473 -0.00426094709471 -1.70033839763976
 1  13.47501900510051  1.23390664616462  0.25790245074507
 1  13.76716280658066 -0.48828126542654  1.24363953365337
 1  15.15756814891489  0.38124798519852 -1.47423708320832
 1  15.41269327032703 -2.43460018591859 -0.19051664926493
 1  15.10507803960396 -2.02333052665267 -1.89526724712471
 1  16.70457851645165 -1.61534546314631 -1.17805991479148
 1  16.25859106880688  1.31335040774077  0.78775219621962
 1  16.49020072207221 -0.32093848954895  1.27286021772177
 1  18.27463665556556 -0.35663262706271 -0.38810481808181
 1  17.73371345254526  0.91302256075608 -1.12400588448845
 1  18.56283496629663  2.26666856645665  0.84339944084408
 1  18.95597187458746  0.89019263056306  1.83532988458846
 1  20.53014308100810  0.35662209800980  0.01999975037504
 1  20.12968980228023  3.21186017091709 -0.74233450295029
 1  21.53116923082308  2.06899277717772 -1.22937419141914
 1  19.80682151535153  1.74936633893389 -1.87269769306931
 1  21.07818783408341  1.05606491029103  2.39580902250225
 1  22.40992563306331  1.96807533873387  1.24669893609361
 1  20.83206573917392  2.70991466766677  2.14315024622462

