%nproc=4
%Mem=2GB
# td=(NStates=1) CAM-B3LYP/6-31G(d,p) 

TD

0 1
12 -7.23198486778678  0.56471471217122  0.17489553815382
 6 -4.86076495759576 -1.99670178147815  0.41041667656766
 6 -4.79091839813981  2.79950427772777  1.10157361456146
 6 -9.36326091489149  3.07438983838384 -0.29737107010701
 6 -9.49163019061906 -1.68198837383738 -0.86870498549855
 7 -5.09739252085209  0.34932619311931  0.71575909630963
 6 -4.28532613791379 -0.84272489288929  0.71931383418342
 6 -2.96191715291529 -0.46437170927093  1.14727016821682
 6 -3.04972526172617  1.09521065356536  1.70510331673167
 6 -4.33375146184618  1.42056243664366  1.13085934713471
 6 -2.81648943994399  1.14521100840084  3.18110163626363
 6 -1.94745902680268 -0.60225423552355 -0.00122079627963
 6 -0.55481373537354 -0.33632186358636  0.46788537143714
 6  0.53750312871287 -0.67633106520652 -0.62060371217122
 8  0.23273382308231 -0.97788919271927 -1.75119439973997
 8  1.74912193719372 -0.36721162796280 -0.18324254435444
 7 -7.19028663716372  2.65595700300030  0.44903005980598
 6 -6.02064919591959  3.32318327222722  0.75508349234923
 6 -6.31781977167717  4.74507513791379  0.84470223472347
 6 -7.69518011341134  4.80511039773977  0.54572147914791
 6 -8.11458201140114  3.55200549184918  0.25920625982598
 6 -5.50749653085308  5.89396048734873  1.33618014321432
 6 -8.51032024442444  5.97159222722272  0.30672069396940
 6 -8.10962015981598  7.29715579987999 -0.00851511381138
 7 -9.15419045474547  0.61818829712971 -0.48988069336934
 6 -9.79155081408141  1.76528721132113 -0.54953007720772
 6 -11.17646238913891  1.45218620902090 -1.07507225682568
 6 -11.16407492819282  0.12366624392439 -1.26845611181118
 6 -9.89392927662766 -0.40540902900290 -0.86480578347835
 6 -12.27282552465247  2.35885816671667 -1.42848337923792
 6 -12.39030907660766 -0.77527859005901 -1.76475165236524
 6 -12.24263059505951 -1.24736862206221 -3.20192829822982
 7 -7.22998925102510 -1.41517087868787 -0.17203032173217
 6 -8.23332855515552 -2.30165610511051 -0.62888069396940
 6 -7.87687535503550 -3.59555373827383 -0.54586301530153
 6 -6.47161268326833 -3.63535785128513 -0.08605109720972
 6 -6.19074385258526 -2.27530368486849  0.06269789118912
 6 -8.69345969066907 -4.82593541244124 -0.66117566456646
 6 -5.39272581028103 -4.41084707000700  0.19137763766377
 8 -5.14821618341834 -5.60899355295529  0.19204523932393
 6 -4.19330274027403 -3.38299123322332  0.49870076207621
 6 -3.59917428162816 -3.71529761436144  1.84171535123512
 8 -3.71719537413741 -3.07949118191819  2.85268898419842
 8 -2.69166051395140 -4.71516966946695  1.81266935493549
 6 -2.16811945044504 -5.13054352365237  3.06826816381638
 6  2.84110788738874 -0.59828908660866 -1.26059143404340
 6  4.07764108650865 -0.35678952835284 -0.60212274097410
 6  5.04305791319132  0.50223354785479 -1.03547344754475
 6  4.97553497009701  1.28013254955496 -2.27527461856186
 6  6.31511796939694  0.63475228212821 -0.24261094729473
 6  7.59734747364736 -0.08095997789779 -0.90828049674968
 6  8.91337041944194  0.03434370087009 -0.13150574477448
 6  10.16997789078908 -0.44559165746575 -0.92568896329633
 6  10.05350253645365 -1.98442777767777 -1.25667732923292
 6  11.42184330143014 -0.15709660026003 -0.10861066236624
 6  12.76905407440744 -0.42625914181418 -0.68609914971497
 6  13.97934362216222  0.08512174897490  0.14749196219622
 6  15.26426177017702 -0.08981159285929 -0.48424147444744
 6  15.61405550775078 -1.54200698649865 -0.87700498029803
 6  16.39226248024803  0.34905929202920  0.47055624032403
 6  17.80556626092609  0.47138526432643 -0.24975325522552
 6  18.83713911341134  1.04896674347435  0.74710707240724
 6  20.23359103890389  1.23366911151115  0.22308191179118
 6  20.37198742764276  2.22340798879888 -0.92866868826883
 6  21.19813768786879  1.53296766616662  1.37139384098410
 1 -4.06911717021702  3.83602198389839  1.38762328332833
 1 -10.31814556625663  3.73343092699270 -0.26896119871987
 1 -10.24353361516152 -2.52340239493949 -1.20367391489149
 1 -2.42848153885389 -1.16747641134113  1.92692993159316
 1 -2.37485712371237  1.78743723232323  1.10570493699370
 1 -1.87026074937494  0.87071256025603  3.53291350475047
 1 -3.23617840404040  2.18317777437744  3.90402496999700
 1 -3.47923890509051  0.37057142484248  3.70723460796080
 1 -2.15225775267527 -1.54709062946295 -0.46560154615462
 1 -2.05210941314131  0.08247033833383 -0.75188028962896
 1 -0.33052014601460  0.81381930543054  0.88437068896890
 1 -0.33360931463146 -0.86756973237324  1.37612048794880
 1 -4.88424059175918  6.33477865296530  0.54140592279228
 1 -5.92598726902690  6.67745754455446  1.63773846304630
 1 -4.84175740454045  5.62108728012801  2.24193787248725
 1 -9.50416791569157  5.96009894599460  0.39337718221822
 1 -8.90027066746675  7.94613320282028 -0.14946435313531
 1 -6.95370040664066  7.49097966716672  0.06922245164516
 1 -12.16868228102810  2.95824312961296 -2.35045134353435
 1 -13.27634284778478  1.76637227532753 -1.69892341604160
 1 -12.50798776017602  2.90557364276428 -0.35384688268827
 1 -12.64798732683268 -1.66421882008201 -1.02194240214021
 1 -13.32175817941794 -0.21338515151515 -1.70211756875688
 1 -13.15253571977198 -1.70750198939894 -3.37472046974698
 1 -12.14211438543854 -0.33101182708271 -3.92757033203320
 1 -11.27121046864687 -1.82130507450745 -3.33459257475748
 1 -9.24811570747075 -5.00750359865987 -1.74416199759976
 1 -7.77049075007501 -5.57982809100910 -0.56780100820082
 1 -9.29921208700870 -4.76438322532253  0.10953269706971
 1 -3.42477260926093 -3.29974155865587 -0.36221287428743
 1 -1.74358544854485 -4.26808518581858  3.54509119611961
 1 -3.10385557295730 -5.53731437383738  3.68046526862686
 1 -1.50194162066207 -5.87568174527453  2.90512721562156
 1  2.79860453155316 -2.00290998089809 -1.32031610791079
 1  2.38622032223222 -0.06671375297530 -2.24605662546255
 1  4.19594881918192 -0.91922992919292  0.34896727292729
 1  4.00593152945294  1.72139323562356 -2.52704604690469
 1  5.46272957135714  2.23942833303330 -2.12328668326833
 1  5.43787911071107  0.78604893509351 -3.10170146944695
 1  6.59733275657566  1.74062028972897 -0.09221172347235
 1  6.15952930093009  0.15814256535654  0.73323433053305
 1  7.30963470557056 -1.23663473517352 -1.10609473817382
 1  7.71796332733273  0.34256113261326 -1.88185833273327
 1  8.95013111031103  1.01245386188619  0.10885484798480
 1  8.70448827162716 -0.49072742814281  0.73655827442744
 1  10.37410912241224  0.12908767506751 -1.68005183578358
 1  9.31592808920892 -2.22083912821282 -2.06764172537254
 1  11.00188327302730 -2.47010352295230 -1.92148833483348
 1  9.86633410701070 -2.60689231183118 -0.24519661036104
 1  11.35200996319632  1.00593500100010  0.19690165356536
 1  11.49484989468947 -0.66517885598560  0.81115858885889
 1  12.96071180688069 -1.52720958235824 -1.05429376427643
 1  12.76023492949295  0.11528100710071 -1.59251761556156
 1  13.84733623682368  1.13920717621762  0.33276993749375
 1  13.91643773407341 -0.23138557585759  1.22527769746975
 1  15.19666205830583  0.55127498789879 -1.45890555005501
 1  15.62011401240124 -2.08657538343834 -0.01550914851485
 1  14.70060759255926 -1.79388758235824 -1.49454717511751
 1  16.66553461206121 -1.60970489908991 -1.42464457325732
 1  16.09781499119912  1.34947402010201  0.97110053105311
 1  16.35307700970097 -0.58311470717072  1.10462339403940
 1  18.20483967586759 -0.58630559435944 -0.53498950655065
 1  17.51148122932293  0.96625788428843 -1.11507499139914
 1  18.22093077587759  2.10291219081908  1.08920402130213
 1  18.84658093549355  0.35512912421242  1.64425077667767
 1  20.50627069376938  0.22260869666967 -0.20275252485249
 1  20.32750958425843  3.27232621752175 -0.57019728922892
 1  21.44158027192719  2.07067294519452 -1.26154740874087
 1  19.73080391359136  2.10518192049205 -1.88500892419242
 1  21.30547056235624  0.78957826162616  2.28370781238124
 1  22.26778141864186  1.56826535773577  1.11138540474047
 1  21.03599613221322  2.48298197439744  1.88104403560356

