%nproc=4
%Mem=2GB
# td=(NStates=1) CAM-B3LYP/6-31G(d,p) 

TD

0 1
12 -7.19484115341534  0.53242148284829  0.14052210081008
 6 -4.87446632773277 -1.93652576387639  0.56166180108011
 6 -4.96117542384238  2.95733006030603  1.25859931713171
 6 -9.44044863366337  3.06627902730273 -0.37502883588359
 6 -9.46129715731573 -1.74749492449245 -0.87306542154215
 7 -5.05690847244724  0.46525778627863  0.66376389678968
 6 -4.33427103240324 -0.67013763416342  0.72054395719572
 6 -2.91575253645365 -0.36447171927193  1.27581302250225
 6 -3.06344663386339  1.20879201170117  1.68223102950295
 6 -4.41357944464446  1.60536091649165  1.20935719691969
 6 -3.06315410641064  1.32659914721472  3.16419994609461
 6 -1.87180146104610 -0.59877388748875  0.14049337513751
 6 -0.37077533153315 -0.46834506590659  0.60386896979698
 6  0.51904128252825 -0.65194862696270 -0.52788444024402
 8  0.28791934163416 -1.01847325112511 -1.67105638593859
 8  1.82238926392639 -0.45053996079608 -0.14406862696270
 7 -7.06601420992099  2.66511791909191  0.37395255205521
 6 -6.07315444644464  3.34571552545255  0.81409939393939
 6 -6.57929591929193  4.77690832123212  0.93325108960896
 6 -7.91601219661966  4.77649753645365  0.37840474747475
 6 -8.17317787098710  3.40220051135113  0.08058839803980
 6 -5.73203898509851  5.89364045534553  1.53715024022402
 6 -8.74600381278128  6.04013908190819  0.39927994989499
 6 -8.45122432023202  7.23747983228323  0.11814755245525
 7 -9.09433446914692  0.69116559485949 -0.59429113441344
 6 -9.91628328732873  1.75228591119112 -0.69169429362936
 6 -11.25207995089509  1.44708569896990 -1.17139188878888
 6 -11.31304982568257  0.08044192149215 -1.26599586578658
 6 -9.90622050575058 -0.47061554965497 -0.95210451335134
 6 -12.31076931903190  2.43025530643064 -1.35105563646365
 6 -12.35619566526653 -0.88236929912991 -1.80377555475548
 6 -12.27960429242924 -1.24007789298930 -3.28608671407141
 7 -7.17251350345034 -1.33180254185419 -0.17531064976498
 6 -8.22557778007801 -2.27537347684768 -0.60830863676368
 6 -7.82469013651365 -3.57166134903490 -0.48333676267627
 6 -6.48958448044805 -3.51643595909591 -0.16042853495350
 6 -6.18512329052905 -2.18377453195320  0.14587620902090
 6 -8.64186453115311 -4.69997281618162 -0.96990653765377
 6 -5.29016555425543 -4.34196018131813  0.08319681958196
 8 -5.18975033683368 -5.54422707630763  0.10847688248825
 6 -4.18369177917792 -3.34666760086009  0.62737362936294
 6 -3.56455081928193 -3.74319040364036  2.00667184688469
 8 -4.02010566516652 -3.18586181898190  3.04697841314131
 8 -2.69442078997900 -4.73151130363036  1.86876496449645
 6 -2.28476111461146 -5.18154862416242  3.09083042004200
 6  2.80263404000400 -0.51733099079908 -1.24830020492049
 6  4.15456877927793 -0.37410125952595 -0.59454198289829
 6  5.15643925132513  0.30981430593059 -0.99761966216622
 6  5.25146256285629  1.11328586488649 -2.27373446454645
 6  6.48017447504750  0.41940074697470 -0.21598828502850
 6  7.69773751265126 -0.17675955785579 -0.94788445714571
 6  8.94213329572957 -0.05163489698970 -0.15099769396940
 6  10.23797469046905 -0.46742384068407 -0.98248464286429
 6  10.20496768296830 -1.95916525142514 -1.32505416691669
 6  11.46472758985899 -0.25657654825483 -0.04596439773977
 6  12.83991116011601 -0.53124964086409 -0.81975251505151
 6  14.00462615041504 -0.17560432363236  0.00326753975398
 6  15.46562190619062 -0.27156976867687 -0.62649569986999
 6  15.81460556275628 -1.69224201000100 -1.14749202900290
 6  16.48691194519452  0.30490487658766  0.35030421512151
 6  17.92311801610161  0.45823394919492 -0.19148742864286
 6  18.78729412891289  1.21378322512251  0.74928729042904
 6  20.26261394119412  1.32876862146215  0.28039764336434
 6  20.53612384128413  2.17562321032103 -0.93455927732773
 6  21.09490736483648  1.94787915731573  1.47976467806781
 1 -4.30737099559956  3.67213559525953  1.63519804080408
 1 -10.10994474617462  3.99290687458746 -0.68151245384538
 1 -10.11715097689769 -2.44062411711171 -1.02776632413241
 1 -2.86211490219022 -1.15315497919792  2.13197043564356
 1 -2.34234387238724  1.95478396699670  1.37005137163716
 1 -2.14262798609861  0.93948943794379  3.70674088748875
 1 -3.21987677387739  2.49548900550055  3.48979354685469
 1 -3.95713669486949  0.77058142584258  3.54196808130813
 1 -1.81975450235023 -1.61090701110111 -0.08112309830983
 1 -2.28078228042804  0.04845693699370 -0.60317541914191
 1 -0.19799689368937  0.62061998549855  1.30605285718572
 1 -0.09812576627663 -1.22225520092009  1.28229110501050
 1 -5.12562473017302  6.49531470657066  0.75809759195920
 1 -6.34257892819282  6.56433623242324  2.23362805200520
 1 -4.87291051985198  5.57332250365037  2.19354303300330
 1 -9.88012551145114  5.77427036313631  0.71064890939094
 1 -9.06341698209821  8.13597218671867  0.05674626792679
 1 -7.35135017161716  7.55382595179518 -0.18913338393839
 1 -12.20055546834683  3.21490879617962 -2.10286658505851
 1 -13.16485169866987  1.76975261336134 -1.53323684738474
 1 -12.44780174157416  2.92455554095410 -0.38492999099910
 1 -12.21889441754175 -1.48821121932193 -1.05414562246225
 1 -13.39368537213721 -0.44044785778578 -1.40168752575258
 1 -12.95056552275227 -2.01321256045605 -3.51398439613961
 1 -12.52233240724073 -0.45265399129913 -4.02337991299130
 1 -11.21305465306531 -1.62763570757076 -3.40614973047305
 1 -8.92596349224923 -4.45893874217422 -1.87958553995399
 1 -7.85990969196920 -5.49837994619462 -0.98916314441444
 1 -9.51095326112611 -4.61558834583458 -0.39124738093809
 1 -3.27694782678268 -3.12166375087509 -0.01108776177618
 1 -1.77469855985599 -4.51184956225623  3.69584627162716
 1 -3.02602779017902 -5.61121176357636  3.74579180128013
 1 -1.41661308780878 -5.76417059415942  2.76521322422242
 1  2.64929960106011 -1.42843253315332 -1.77450152645265
 1  2.45757745794580  0.32144506290629 -2.07051907170717
 1  4.17448667296730 -1.18301630783078  0.10976335253525
 1  4.19977091339134  1.32066316261626 -2.64859820212021
 1  5.79298259665967  2.07973236343634 -2.03731808640864
 1  5.65897121992199  0.47353768396840 -3.01969326862686
 1  6.73819684298430  1.44223045074507 -0.12127462976298
 1  6.39691303930393  0.07339409050905  0.95485649274927
 1  7.35481922402240 -1.23372444414441 -1.12796692539254
 1  7.78521005200520  0.39190606710671 -1.92921306820682
 1  9.03257935513551  0.99788240474047  0.02857682018202
 1  8.98532635543554 -0.54091244664466  0.83135775437544
 1  10.15300701220122  0.23448821512151 -1.91610544114411
 1  9.28459495589559 -2.11567861216122 -2.00615557675768
 1  11.07620070477048 -2.24779129172917 -1.96210239623962
 1  10.28983645724573 -2.49788141074107 -0.25475756645665
 1  11.29834459665967  0.63232764026403  0.48142010541054
 1  11.32324273397340 -0.92364470257026  0.91608908190819
 1  12.95462119781978 -1.55354221562156 -1.18499683458346
 1  12.83929283528353 -0.07419794079408 -1.81505986978698
 1  13.84433593679368  1.03047630313031  0.41345800630063
 1  14.14305039533953 -0.67127956525653  0.94530970067007
 1  15.45998839093909  0.27741760216022 -1.49486914641464
 1  15.91875387638764 -2.48830555645565 -0.41573917151715
 1  14.95457298909891 -2.18611680528053 -1.78413613401340
 1  16.71876993559356 -1.61901583018302 -1.69420152895289
 1  15.90300551025102  1.26397547024703  0.61164458545855
 1  16.35196689868987 -0.36353274897490  1.18957188888889
 1  18.31328051995200 -0.50986795059506 -0.30732674027403
 1  17.71623170437044  0.84111537003700 -1.07674115801580
 1  18.32227090989099  2.27977987758776  0.97215231613161
 1  18.91791806920692  0.74483809510951  1.67341369296930
 1  20.75802586928693  0.31755819161916  0.03430118051805
 1  20.14225105840584  3.20009899479948 -0.95766603610361
 1  21.70103621752175  2.09254513241324 -1.16915816981698
 1  20.13430426362636  1.76776817911791 -1.82471289458946
 1  21.00400041534153  1.36187549134913  2.39459890149015
 1  22.08011265176518  2.06374490569057  1.24726899309931
 1  20.60162269486949  2.97323099929993  1.79538546974697

