%nproc=4
%Mem=2GB
# td=(NStates=1) CAM-B3LYP/6-31G(d,p) 

TD

0 1
12 -7.17468913821382  0.57977621832183  0.13948199679968
 6 -4.84079296039604 -1.95506761806181  0.58209384428443
 6 -4.80590989728973  2.90153448074807  1.21617507470747
 6 -9.39529411821182  2.98412081148115 -0.39578091109111
 6 -9.48153918151815 -1.75660583558356 -0.96187430243024
 7 -5.11167394899490  0.48028928942894  0.83837135753575
 6 -4.35573317861786 -0.69097971837184  0.90626252905291
 6 -2.93820478167817 -0.32217748984898  1.30614605580558
 6 -3.02485277447745  1.05339647214721  1.80276308270827
 6 -4.30715880258026  1.49651003140314  1.21091735293529
 6 -3.00693848484848  1.21652814011401  3.32437596369637
 6 -1.89962424332433 -0.36608061816182  0.07811713751375
 6 -0.45009326332633 -0.23976220762076  0.61623020592059
 6  0.43902328072807 -0.52919635173517 -0.63498515031503
 8  0.04152470217022 -0.69366076987699 -1.75044432473247
 8  1.78364538953895 -0.42185709250925 -0.29766398649865
 7 -7.15069267776778  2.63327473477348  0.44385954275428
 6 -5.99346647764776  3.40790174407441  0.83630161416142
 6 -6.42575056475648  4.75176580698070  0.87631539603960
 6 -7.67473806920692  4.85562544924492  0.52479938693869
 6 -8.08061861506151  3.39832012331233  0.09358969816982
 6 -5.52329811101110  5.92405349664966  1.41432795799580
 6 -8.63834304670467  5.92216728472847  0.30897091899190
 6 -8.16062526032603  7.25556164046405  0.10220595829583
 7 -9.18159319501950  0.63845032333233 -0.41929363466347
 6 -9.90928258725873  1.74647533013301 -0.58907403160316
 6 -11.14762950585058  1.42838382878288 -1.23465821542154
 6 -11.20066858755876  0.01923580088009 -1.34753401960196
 6 -9.89603948764876 -0.44809329742974 -0.92663196609661
 6 -12.24682292439244  2.41396367726773 -1.59492002290229
 6 -12.27658770447045 -0.80314137633763 -1.92248742594259
 6 -12.13696002800280 -1.17171105630563 -3.36263436883688
 7 -7.18568482058206 -1.38969833143314 -0.06262938163816
 6 -8.22613783608361 -2.21508744824482 -0.48924673057306
 6 -7.74997266476648 -3.64150833373337 -0.46352478147815
 6 -6.48486400840084 -3.57536185168517  0.03657116501650
 6 -6.13191796999700 -2.21229738423842  0.17786940834083
 6 -8.57113745844584 -4.86200901980198 -0.96336588358836
 6 -5.28102464016402 -4.32755874117412  0.37157565746575
 8 -5.13008437023702 -5.56833948754876  0.16430246504650
 6 -4.18881229122912 -3.37037997209721  0.62725361736174
 6 -3.55931029522952 -3.68820490509051  2.01319249894990
 8 -3.70125377997800 -3.11923515631563  3.08456217151715
 8 -2.90915226312631 -4.81556970947095  1.82956104410441
 6 -2.20818345684568 -5.27975844514451  3.00394173117312
 6  2.67833160976098 -0.44899415711571 -1.32117749264926
 6  4.05705902830283 -0.42923677307731 -0.71503403210321
 6  5.12257586498650  0.34739806430643 -1.09305920612061
 6  5.12218963556356  1.17379191549155 -2.40411750285028
 6  6.31361781938194  0.32491129802980 -0.30277696389639
 6  7.64052179107911 -0.21478336023602 -1.08508817751775
 6  8.94592367476748 -0.24749448294829 -0.22342493669367
 6  10.28635952895289 -0.64233133143314 -1.10046644104410
 6  10.14277146334634 -2.10099943484348 -1.64475613711371
 6  11.44360547764776 -0.47908879947995 -0.10934073537354
 6  12.75182235123512 -0.68401491739174 -0.75269580938094
 6  13.99867555535554 -0.19724648784878  0.11688890189019
 6  15.37889323332333 -0.18114072577258 -0.50672372267227
 6  15.70838494069407 -1.55092787858786 -0.99567684748475
 6  16.32352560656065  0.50292467856786  0.43519270397040
 6  17.75773147744775  0.52310043584358 -0.12764104400440
 6  18.74748014751475  1.19721156795680  0.79519188088809
 6  20.13606128592859  1.36374211881188  0.36095569916992
 6  20.36389661856186  2.27477312531253 -0.85021084248425
 6  21.06965483958396  1.98184255365537  1.37991469306931
 1 -4.19160941944194  3.53040142184218  1.72448696969697
 1 -10.16727047874788  3.80311789568957 -0.28318262086209
 1 -10.18136739853985 -2.50090014471447 -1.17612115961596
 1 -2.38890758145815 -0.88964862856286  2.02492973157316
 1 -2.19374901290129  1.69924841344134  1.53808817531753
 1 -2.06018974227423  1.05538102710271  3.71109132253225
 1 -3.20190497669767  2.30931038763876  3.49863443094310
 1 -3.63668464966497  0.49755412311231  4.11824570907091
 1 -1.90982350925093 -1.39468538893889 -0.57528251425142
 1 -2.32737693989399  0.69132122342234 -0.59868497009701
 1 -0.29021611561156  0.73086100960096  0.98529078097810
 1 -0.35636158985899 -1.02983595899590  1.36838971487149
 1 -4.83061522922292  6.20236541164117  0.65413719591959
 1 -5.95506017631763  7.02604240304030  1.79794448364837
 1 -4.88626185498550  5.61733690509051  2.33610728942894
 1 -9.59709720862086  5.79665260136014  0.65699354385439
 1 -8.84994563496350  8.12018060756075  0.26318691199120
 1 -7.09345438203820  7.52147271647165 -0.15725019561956
 1 -12.00775618841884  2.97013431873187 -2.42515881428143
 1 -13.28700391389139  1.88511414951495 -1.78405192889289
 1 -12.29896685808581  3.30627371277128 -0.66764826282628
 1 -12.47540006810681 -1.63367576577658 -1.46253646154616
 1 -13.09886589018902 -0.13342715571557 -1.65380273727373
 1 -12.87322778897890 -2.02599383858386 -3.54491748944894
 1 -12.41339151315132 -0.36884561046105 -4.21001857685769
 1 -11.03999734733473 -1.60158310231023 -3.49492860836084
 1 -9.10489138503850 -4.56023887218722 -1.95303288468847
 1 -8.22550625162516 -5.81643175137514 -0.82639686778678
 1 -9.64612677847785 -4.85672245924592 -0.51412966916692
 1 -3.36465659765977 -3.52066365086509 -0.32009866286629
 1 -1.70117120712071 -4.61530990829083  3.41837852485249
 1 -2.95184037143714 -5.81549219161916  3.75125234733473
 1 -1.62263368986899 -6.07612178927893  2.78929563246325
 1  2.31305597669767 -1.51484117401740 -1.94415849214921
 1  2.44061576177618  0.40001291969197 -2.03258527832783
 1  4.29479870417042 -1.05345335153515  0.15138751495150
 1  4.20240117641764  1.12519361566157 -2.97687102940294
 1  5.08327162556256  2.29192358255826 -2.00960531513151
 1  5.83936925972597  1.12941327152715 -3.20901220052005
 1  6.59687271057106  1.40989721742174 -0.04240674297430
 1  6.10573392139214 -0.27156040494049  0.65650665776578
 1  7.17675141724172 -1.16700777247725 -1.29176330503050
 1  7.91347287828783  0.35219209570957 -1.87156730363036
 1  9.11081717891789  0.82485510201020  0.22541650415042
 1  8.68747657045705 -0.81160951635164  0.63827844644464
 1  10.48764047554755  0.22795756205621 -1.81367519811981
 1  9.09399589598960 -2.08523556785679 -2.19032399359936
 1  10.77385046974698 -2.41724823742374 -2.35758194419442
 1  10.18109558315832 -2.65663728632863 -0.61890398109811
 1  11.35593035523552  0.67881228872887  0.56026799019902
 1  11.16544695439544 -1.24244658275828  0.62007948094809
 1  12.89804554025403 -1.65419228062806 -1.01200953585359
 1  13.03701260726073 -0.05719624062406 -1.69490785458546
 1  13.63547505070507  0.81341459695970  0.68767542804280
 1  13.94811090139014 -0.62063450075008  1.14278944864486
 1  15.15421781388139  0.45180504090409 -1.18772843234323
 1  15.60344234523452 -2.32223894979498 -0.31096869446945
 1  15.09950748254825 -1.77959615321532 -1.83189090949095
 1  16.71906996559656 -1.65419934853485 -1.44554666346635
 1  15.78031324102410  1.35925499819982  0.73870729172917
 1  16.32592429442944 -0.05144153985398  1.41590452215222
 1  18.17254644654465 -0.43325028882888 -0.27170317791779
 1  17.74362444364436  1.07357861636164 -1.10819430333033
 1  18.47267595039504  2.15652755235524  1.46742184308431
 1  18.74093037043704  0.45924953625363  1.61469782138214
 1  20.47334740144014  0.29638607440744  0.18916666706671
 1  20.02894972827283  3.34979396429643 -0.50835110461046
 1  21.47116323022302  2.18507438533853 -1.20027128112811
 1  19.73584441764176  2.16267767006701 -1.88327875117512
 1  21.07120713601360  1.58230753455345  2.38108755035504
 1  21.96805144564457  1.96402493369337  1.00553481968197
 1  20.78199073167317  2.93817749394940  1.49594552575258

