%nproc=4
%Mem=2GB
# td=(NStates=1) CAM-B3LYP/6-31G(d,p) 

TD

0 1
12 -7.12097376667667  0.62277051775178  0.02160020862086
 6 -4.87747662876288 -1.92926503780378  0.45898153305331
 6 -4.71045035133513  2.75842016931693  1.00919437663766
 6 -9.41559614841484  3.05344774417442 -0.28325965896590
 6 -9.54121514911491 -1.75257543254325 -0.98373648864886
 7 -5.07255003660366  0.38820008050805  0.64436195659566
 6 -4.41317892319232 -0.70631125152515  0.82039394219422
 6 -2.91877283848385 -0.42027729982998  1.18682412361236
 6 -3.05931622082208  1.01229236173617  1.61212401880188
 6 -4.36934502120212  1.49800018041804  1.08862512371237
 6 -3.00984877587759  1.20903739103910  3.09842336843684
 6 -1.88233251415142 -0.69525353545355  0.02127145294529
 6 -0.54300255425543 -0.56345457685769  0.51268985188519
 6  0.49278865726573 -0.69944337643764 -0.58881053285328
 8  0.15701625132513 -0.97792919671967 -1.69344862516252
 8  1.72671969696970 -0.45018992579258 -0.14516873697370
 7 -7.01314892339234  2.60150155745575  0.30537569436944
 6 -5.97849498049805  3.33049400330033  0.81769975397540
 6 -6.37400539023902  4.72378300870087  0.86498426292629
 6 -7.58770936633663  4.80726061276128  0.42712961996200
 6 -8.13243379657966  3.46875716701670  0.08673901310131
 6 -5.55476125732573  5.75447653895390  1.52923944914491
 6 -8.50033924632463  5.95289035703570  0.26603662556256
 6 -8.17016621442144  7.21935802010201  0.09718545624562
 7 -9.10549558525853  0.61501798009801 -0.43624532983298
 6 -9.84637629662966  1.79201988458846 -0.61278640284028
 6 -11.22346708960896  1.49651064146415 -1.10713546314631
 6 -11.30783930463046  0.10450432773277 -1.25860512671267
 6 -9.99978986268627 -0.41549003710371 -0.87055635853585
 6 -12.28301654375438  2.50649293019302 -1.23472400330033
 6 -12.34251429712971 -0.77899896209621 -1.77090226742674
 6 -12.26922325432543 -0.99423330853085 -3.29313741914191
 7 -7.16672292439244 -1.37694705630563 -0.10435355405541
 6 -8.28795401770177 -2.18186412591259 -0.55981378727873
 6 -7.83654132163216 -3.57770195309531 -0.59890831983198
 6 -6.51478700070007 -3.55539985548555 -0.07792028412841
 6 -6.15831060926093 -2.19408556305631  0.08592021342134
 6 -8.64751509620962 -4.77441025992599 -0.84544409140914
 6 -5.36664320202020 -4.36868285358536  0.20744924482448
 8 -5.30568192999300 -5.60117277087709  0.21541757655766
 6 -4.22382579257926 -3.35522845694569  0.57164805680568
 6 -3.69256362056206 -3.80249633423342  1.89118029772977
 8 -3.93932758735874 -3.17875110791079  2.95740945624562
 8 -2.73514486238624 -4.73283143564356  1.84176226422642
 6 -2.29753239173917 -5.27752822212221  3.08886022302230
 6  2.73123690029003 -0.55240449814981 -1.17093246814681
 6  4.04063738613861 -0.32493634303430 -0.45812834153415
 6  5.00134374177418  0.45181850635063 -1.00543044324432
 6  4.94757217381738  1.12943748004800 -2.24034112521252
 6  6.34407086468647  0.45068387528753 -0.15336202240224
 6  7.63325106400640 -0.09347122902290 -0.95709537823782
 6  8.88585766816682  0.08385865236524 -0.14721731593159
 6  10.20044093709371 -0.34597169546955 -0.89372576697670
 6  10.31892907910791 -1.83598293319332 -1.30960262176218
 6  11.46689780688069 -0.17581847244724  0.00207040574057
 6  12.77970513951395 -0.37416393229323 -0.69930046984698
 6  14.04293998179818 -0.11479824302430  0.14992220522052
 6  15.36474181818182 -0.31463407510751 -0.47456050635064
 6  15.70144424662466 -1.75128791459146 -0.74684196399640
 6  16.44919817381738  0.25120950705071  0.42091127582758
 6  17.94499020332033  0.42350047584758 -0.16664494439444
 6  18.86684208370837  1.31239308610861  0.68918127982798
 6  20.25302298209821  1.37600334493449  0.14142374597460
 6  20.37767799669967  2.24205985398540 -1.10889671107111
 6  21.23647152125213  1.92439680908091  1.25407210881088
 1 -3.97429768826883  3.31431981368137  1.42590711171117
 1 -10.07433118481848  3.68909649354936 -0.16983128572857
 1 -10.41604086588659 -2.54775483018302 -1.27377092459246
 1 -2.48755744644464 -1.27517718141814  1.82906014461446
 1 -2.22407204520452  1.51313980258026  1.18608297479748
 1 -1.90814453775378  0.75928141714171  3.43614382778278
 1 -2.94612939913991  2.22501195779578  3.53411797929793
 1 -3.87636861806181  0.67291165886589  3.69687357185719
 1 -2.06555908280828 -1.80064598499850 -0.27343232923292
 1 -2.15035923812381  0.15476756805681 -0.67996309790979
 1 -0.18042513651365  0.25433335683568  1.10678293019302
 1 -0.36822277597760 -1.39813278867887  1.32551542744274
 1 -4.95597776547655  6.22999817491749  0.73570535273527
 1 -6.24329900020002  6.59378917771777  1.93185787498750
 1 -4.98187141594159  5.22868804020402  2.27229090779078
 1 -9.50399789868987  5.78086102220222  0.56967481198120
 1 -8.87900854125412  7.94864345384538  0.22880347364737
 1 -7.27251228782878  7.55781635083508 -0.07111158175818
 1 -12.21854726752675  3.23047035233523 -2.06316261466147
 1 -13.22383759725973  1.89301493959396 -1.31357488118812
 1 -12.26840380178018  3.21641472687269 -0.30270176817682
 1 -12.52305483358336 -1.73494589278928 -1.15958616651665
 1 -13.20701670527053 -0.27795160816082 -1.65717307430743
 1 -13.05286575277528 -1.64621586078608 -3.61945494319432
 1 -12.05336551055106  0.07202847694769 -3.72242981798180
 1 -11.43555690329033 -1.49453239723972 -3.47569668516852
 1 -9.19471036693669 -4.71631447974797 -1.79621720312031
 1 -7.96168986998700 -5.51267137533753 -0.74433866196620
 1 -9.49021118691869 -5.06866365336534  0.07994973877388
 1 -3.35719585158516 -3.41858344284428 -0.23083973697370
 1 -2.04295538553855 -4.37586596389639  3.70030671767177
 1 -3.24937012441244 -5.73415405780578  3.49477669976998
 1 -1.45146657315732 -6.00658483558356  2.69785648854886
 1  2.71032570367037 -1.52488217811781 -1.59908398469847
 1  2.70920262046205  0.19399231763176 -2.06773879367937
 1  4.27496672097210 -0.71870987718772  0.53474585078508
 1  3.85642657895790  1.41850294659466 -2.80986432873287
 1  5.63753705210521  2.34969936013601 -2.28356271087109
 1  5.60880620342034  0.41261159135914 -2.90424172347235
 1  6.32750577387739  1.52584881258126  0.12804030173017
 1  6.15648899689969 -0.26643989288929  0.68178918601860
 1  7.52011575367537 -1.25866693839384 -1.21675580428043
 1  7.79958148914892  0.28102497899790 -1.95487563446345
 1  9.23579967716772  1.23341595809581  0.18939290179018
 1  8.88080590339034 -0.49941829722972  0.80754537313731
 1  10.56315802730273  0.28467323362336 -1.80218404900490
 1  9.18024452085209 -2.22614965926593 -1.89563452465247
 1  11.14078716341634 -1.96683319591959 -1.97178336433643
 1  10.50084755835584 -2.54447607020702 -0.49486157685769
 1  11.36419118131813  0.90944535203520  0.53912587598760
 1  11.42339274897490 -0.93791612971297  0.83286075907591
 1  12.73919965566557 -1.46843370477048 -0.91277961286129
 1  12.86425533153315  0.44081356035604 -1.42720108390839
 1  14.07486899009901  1.01807506300630  0.31425808630863
 1  13.87376346664666 -0.33763620092009  1.26487165686569
 1  15.50476286838684  0.28918877927793 -1.24629428892889
 1  15.75015701670167 -2.33936066196620  0.09884228662866
 1  14.93448097989799 -2.22525071867187 -1.47233495389539
 1  16.86831489008901 -1.80733466206621 -1.00670277907791
 1  16.14632984268427  1.27316638933893  0.76839026002600
 1  16.52420412241224 -0.27433382908291  1.24656758845885
 1  18.34346353825383 -0.55854281808181 -0.38292430003000
 1  17.85240532173217  0.87614887338734 -1.19814329822982
 1  18.50993967676768  2.40695259485949  0.70888598949895
 1  19.01174745214521  0.90964457575758  1.78673502510251
 1  20.49710977767777  0.37636407220722 -0.23537578717872
 1  20.15793262656266  3.28434741964196 -1.08020829032903
 1  21.54501061496149  2.20297617551755 -1.54620587458746
 1  19.76622745594559  1.87489889218922 -1.94091451475147
 1  21.13129314461446  1.23280258405841  2.28897833943394
 1  22.28040268076808  1.88929746094609  0.93774804100410
 1  20.84774730733074  2.91569524572457  1.41454738593859

