%nproc=4
%Mem=2GB
# td=(NStates=1) CAM-B3LYP/6-31G(d,p) 

TD

0 1
12 -7.16484815411541  0.65294353505351  0.03834188278828
 6 -4.79179806090609 -1.95391750305030  0.50389602450245
 6 -4.80385969226923  2.82484681198120  1.23922737993799
 6 -9.37846243504350  3.17997039643964 -0.42684401740174
 6 -9.49639066666667 -1.69473964896490 -0.86296441144114
 7 -5.19440222182218  0.51599285978598  0.79276679707971
 6 -4.34330193549355 -0.71794241464146  0.83501540434043
 6 -2.90209117031703 -0.40882615471547  1.32529797099710
 6 -3.04681497069707  1.10877200970097  1.71289409580958
 6 -4.42380046674668  1.54838521892189  1.25706196739674
 6 -2.86390418141814  1.31848833613361  3.28244177027703
 6 -1.99320360126013 -0.65866987708771  0.21680100590059
 6 -0.55896415041504 -0.44322255365537  0.58466704960496
 6  0.46446582498250 -0.75813924602460 -0.49521117291729
 8  0.21016156585659 -1.13737514131413 -1.63145242554255
 8  1.72982000700070 -0.56717162396240 -0.15871009110911
 7 -7.09904751325133  2.63455486278628  0.48394355115512
 6 -6.07595472647265  3.34913586748675  0.80819880388039
 6 -6.35604359405941  4.73288391879188  0.83827159165917
 6 -7.71741233663366  4.88963885058506  0.40144705170517
 6 -8.19053960716072  3.54103439473947  0.14147448664866
 6 -5.42884866606661  5.75756684798480  1.41009753495350
 6 -8.59432864526453  6.06995206320632  0.32151217311731
 6 -8.25067426522652  7.31758784308431  0.16096183388339
 7 -9.07547258295830  0.69090556885689 -0.56039774507451
 6 -9.84262592159216  1.88818950155016 -0.66181130533053
 6 -11.25514025692569  1.54341533193319 -1.16877162676268
 6 -11.26138465916592  0.10949482678268 -1.28451771797180
 6 -9.82819270297030 -0.31921040914091 -0.87761706460646
 6 -12.38819706180618  2.43468574947495 -1.43599413031303
 6 -12.37208725442544 -0.77046810901090 -1.71020619781978
 6 -12.22767909990999 -1.20548443364336 -3.19418752415242
 7 -7.19108536063606 -1.39478884048405 -0.15822894159416
 6 -8.20739596189619 -2.22673861336134 -0.67924573047305
 6 -7.78841650915091 -3.60491467436744 -0.66745517451745
 6 -6.47163268526853 -3.50967528302830 -0.17476996909691
 6 -6.18522330053005 -2.14830098459846  0.14214583598360
 6 -8.51604194889489 -4.88829164806481 -0.93718326532653
 6 -5.33903044074407 -4.38765475077508  0.18794729462946
 8 -5.19374073587359 -5.50580323392339  0.19396543134313
 6 -4.16600001000100 -3.26601953605361  0.53691458345835
 6 -3.62796716091609 -3.69396548114812  1.92519369906991
 8 -3.63929758435844 -3.14088732153215  3.01270498579858
 8 -2.95620696859686 -4.88100625312531  1.73011109910991
 6 -2.28368100660066 -5.24555502480248  2.96971830883088
 6  2.82707648424842 -0.70651990969097 -1.19397477237724
 6  4.04697802020202 -0.42912676207621 -0.41838436713671
 6  5.06690029742974  0.19239256375638 -0.99489939013901
 6  5.08606602320232  1.00730526682668 -2.27989508060806
 6  6.36110256785679  0.29985879277928 -0.34781146734673
 6  7.66177391629163 -0.24721660356036 -1.08522819151915
 6  8.89089817221722 -0.18531826532653 -0.18910150435043
 6  10.21036192919292 -0.58932603090309 -0.95832222662266
 6  10.10805799199920 -2.15679501440144 -1.32627428892889
 6  11.53996511361136 -0.22026291689169 -0.18559836113611
 6  12.87031420042004 -0.61403791969197 -0.69194973477348
 6  13.96260194799480 -0.14490125332533  0.05558277127713
 6  15.32346769076908 -0.16154876657666 -0.54021707200720
 6  15.76538064026403 -1.48708149394940 -1.04816209600960
 6  16.40875412941294  0.57618200430043  0.29429861456146
 6  17.85051075537554  0.79607773357336 -0.20359863976398
 6  18.86205160466047  1.26350819761976  0.78887124882488
 6  20.28399607940794  1.42334807940794  0.36034563816382
 6  20.40773100200020  2.29955560356036 -1.04987080848085
 6  21.03876175027503  2.02615698509851  1.52217891949195
 1 -4.20781103960396  3.65350373207321  1.66264078507851
 1 -10.23466721842184  3.91507909180918 -0.83815811841184
 1 -10.20034929672967 -2.42731278597860 -1.16060960846085
 1 -2.67891658235824 -0.97834749844984  2.28056529512951
 1 -2.25507514551455  1.79348783738374  1.16676104260426
 1 -1.74811853515351  1.33280876987699  3.53738395179518
 1 -3.44052883908391  2.28884834143414  3.65126969446945
 1 -3.46525750695070  0.52842721042104  3.82630651515152
 1 -2.09273180008001 -1.77141306170617 -0.39625461146114
 1 -2.16323052525253  0.07557964926493 -0.68865396699670
 1 -0.48296539053905  0.56606452995299  0.88313056495650
 1 -0.23951990569057 -1.02848582398240  1.29444232013201
 1 -4.50860302800280  6.09004417951795  0.78951073327333
 1 -6.04433910421042  6.66705650445044  1.83197788698870
 1 -4.95981921072107  5.53350852225222  2.25857953665367
 1 -9.70183768266827  5.80247318341834  0.19299714421442
 1 -9.11561220162016  8.09926851635164  0.06029662296230
 1 -7.25685072167217  7.58613918311831  0.10038556795680
 1 -12.32228764156416  3.31037834313431 -2.20601690009001
 1 -13.19223443694369  1.86593223132313 -1.53194671837184
 1 -12.78424538593860  3.14358744414441 -0.53891538953895
 1 -12.09894242234223 -1.66323872207221 -0.90614082198220
 1 -13.41927793139314 -0.30353416641664 -1.57807516451645
 1 -13.10734120032003 -1.68285952515252 -3.52320531823182
 1 -12.21710188418842 -0.33486221212121 -3.95999357435744
 1 -11.32866621422142 -1.66520946494649 -3.43905302080208
 1 -9.22383327922792 -4.92023487178718 -1.82467004840484
 1 -7.89371307230723 -5.79394950315032 -1.26071029912991
 1 -9.20534270007001 -5.06323311031103 -0.11247950415041
 1 -3.37880801280128 -3.68958054255425  0.06534988198820
 1 -1.59198028802880 -4.49676805410541  3.28259494649465
 1 -3.23363855125513 -5.55049569196920  3.59715693779378
 1 -1.68391981848185 -6.21908608570857  2.68434513741374
 1  2.56643131423142 -1.73575326522652 -1.41106518281828
 1  2.59380108030803 -0.07600468206821 -2.08919093889389
 1  4.27816704100410 -0.97251525772577  0.52884526072607
 1  4.10634157045705  1.04702579887989 -2.65378872117212
 1  5.70043334173417  2.04376876707671 -2.31031538613861
 1  5.75903122592259  0.29672000220022 -2.94533583288329
 1  6.61977500080008  1.37250347804780 -0.08881138343834
 1  6.31817516551655 -0.13111636053605  0.97508851595160
 1  7.52159590169017 -1.50607167886789 -1.31265539423942
 1  7.82900443144314  0.27466434293429 -2.01922206910691
 1  8.90395649284928  0.71188380488049 -0.00315635313531
 1  8.97042486528653 -0.97170552595260  0.58260287888789
 1  10.40776248774877 -0.16383161686169 -2.09914374497450
 1  9.10727722412241 -2.51671871617162 -1.90901586278628
 1  10.76086917161716 -2.49683619621962 -2.08119430543054
 1  10.14332180578058 -2.71728335093509 -0.36641873257326
 1  11.31349611181118  0.75356976447645  0.17436940034003
 1  11.55369577927793 -0.67641998009801  0.87911538453845
 1  12.89737547324732 -1.68997585898590 -0.94520285518552
 1  12.70586949294930 -0.01233175417542 -1.74455281908191
 1  13.79115061826183  0.90054330983098  0.46828348884888
 1  14.21334742504250 -0.78461089838984  1.11351652135213
 1  15.33256564866487  0.60328018841884 -1.24989464896490
 1  15.59691169216922 -2.46698342424242 -0.29677727532753
 1  14.98021555335534 -1.92072026562656 -1.84127184758476
 1  16.75336339493949 -1.58463239183918 -1.55109721852185
 1  15.91930714041404  1.56065513821382  0.74636805780578
 1  16.30940264226423 -0.00461685738574  1.18596152785279
 1  18.03178237013702 -0.20761772557256 -0.60250625822582
 1  17.87589767096710  1.35622688118812 -1.09148263216322
 1  18.37620630343034  2.18182008160816  1.33327842874287
 1  18.77689396679668  0.60409402070207  1.65896224782478
 1  20.55788585528553  0.47572400820082  0.22425017541754
 1  20.22374920822082  3.48571755665567 -0.84369463896390
 1  21.45269138303830  2.04185006290629 -1.64078533253325
 1  19.56956778997900  1.83336473877388 -1.57450787408741
 1  20.90918093339334  1.40421972577258  2.41209065066507
 1  22.24146878737874  2.09721825302530  1.46936120232023
 1  20.87596012861286  3.00731440764076  1.53911984318432

