%nproc=4
%Mem=2GB
# td=(NStates=1) CAM-B3LYP/6-31G(d,p) 

TD

0 1
12 -7.18477014631463  0.59451769246925  0.15037308590859
 6 -4.85742462356236 -1.83924603590359  0.54530016491649
 6 -4.84729403570357  2.89862418971897  1.20110356755676
 6 -9.48081267006701  3.03090548994899 -0.50791212421242
 6 -9.49117014461446 -1.78592876787679 -0.90236835183518
 7 -5.08332111371137  0.47630889138914  0.87735525592559
 6 -4.31327893319332 -0.63672429282928  0.91449335213521
 6 -2.90331129232923 -0.29416468856886  1.30335577677768
 6 -3.02738302750275  1.16597773027303  1.70601340774077
 6 -4.36352443914391  1.58718909930993  1.21446770797080
 6 -2.84976276727673  1.30749723702370  3.19625315141514
 6 -1.96878115901590 -0.61581559165917  0.15935526132613
 6 -0.44880313431343 -0.38095632703270  0.62113069596960
 6  0.51302068046805 -0.55033846594659 -0.53969562136214
 8  0.16588713841384 -0.77180858465847 -1.70797007730773
 8  1.79499652465247 -0.42609751655166 -0.15270949104910
 7 -7.14312192069207  2.56788819611961  0.36340149694969
 6 -6.16574370537054  3.25882683658366  0.77064504850485
 6 -6.54378236793679  4.78559919031903  0.93016078057806
 6 -7.82824341974197  4.84275416211621  0.48926583358336
 6 -8.24496504970497  3.39277956925693  0.09646998619862
 6 -5.69648542974297  5.80285137643764  1.43880040524052
 6 -8.78340755315532  5.97633270127013  0.35933595549555
 6 -8.37399659745975  7.27070315461546  0.18109384708471
 7 -9.20416545224522  0.59887636593659 -0.56922862816282
 6 -9.87077873687369  1.70218090069007 -0.66287141134113
 6 -11.26735147804781  1.37385837623762 -1.19712446204620
 6 -11.25727424812481 -0.03150927362736 -1.32988225442544
 6 -9.87575745944594 -0.44530301840184 -0.92753205610561
 6 -12.32682092419242  2.37321960286029 -1.41180171107111
 6 -12.31254129982998 -0.83945500770077 -1.81408658585859
 6 -12.29809614161416 -1.09216310151015 -3.45723382878288
 7 -7.19010526262626 -1.39549891149115 -0.22590570927093
 6 -8.19340456275628 -2.26725266476648 -0.54708251415141
 6 -7.77092475997600 -3.62321650455045 -0.50829925892589
 6 -6.45223074507451 -3.54440875637564 -0.10416290839084
 6 -6.15929070727073 -2.11562771727173  0.10236185758576
 6 -8.52251259595960 -4.84513733263326 -0.79239878687869
 6 -5.29557609530953 -4.26495248054805  0.26645514541454
 8 -5.11491285308531 -5.49898255185519  0.18239427422742
 6 -4.15949935993599 -3.22189512361236  0.56055694769477
 6 -3.49946431063106 -3.63478956355636  1.92931411111111
 8 -3.62144579917992 -2.97746097889789  2.91854556985699
 8 -2.65420676857686 -4.74062221472147  1.83945203320332
 6 -2.07027966646665 -5.30905137443744  2.97576891389139
 6  2.72448622522252 -0.69847910561056 -1.20574594949495
 6  4.15702902530253 -0.49771362076208 -0.66586911561156
 6  5.06929053645365  0.45613893839384 -0.98165806600660
 6  4.98741615821582  1.43782831913191 -2.14346143724372
 6  6.46564302190219  0.39476828372837 -0.25799248544855
 6  7.64100183908391 -0.19753163506351 -1.08005767446745
 6  8.93361244364436 -0.11855158865887 -0.17137973217322
 6  10.18392928592859 -0.51080817911791 -0.96839323372337
 6  10.04653183938394 -1.93225256015602 -1.35390705220522
 6  11.41645276237624 -0.18170906150615 -0.14309411071107
 6  12.76291346034603 -0.43169968586859 -0.78563910371037
 6  14.02266795459546 -0.17219398259826  0.03582079507951
 6  15.42799814381438 -0.25410802250225 -0.52394544484448
 6  15.67282138433843 -1.75571835763576 -0.86922420222022
 6  16.49240249424942  0.30939532563256  0.42870205490549
 6  17.82093779807981  0.43657178297830 -0.21465974587459
 6  18.84113951345135  1.05310715751575  0.74869723142314
 6  20.35413309310931  1.24564030863086  0.31779138273827
 6  20.37100732963296  2.13179882788279 -1.04947076847685
 6  21.16656453055306  1.90099446884688  1.37797449904991
 1 -4.19586984548455  3.51974035573557  1.63812833383338
 1 -10.27007075877588  3.75828341224122 -0.66718102070207
 1 -9.92075133693369 -2.48554860956096 -1.33369691719172
 1 -2.66327501820182 -0.98703836753675  2.30456769536954
 1 -2.30099973797380  1.82339082768277  1.25647001350135
 1 -1.92796651995199  0.86545203420342  3.56694690809081
 1 -2.82732751895190  2.44592404900490  3.71323589108911
 1 -3.63029401060106  0.72785715341534  3.55513939843984
 1 -2.15248777567757 -1.54317023742374 -0.24443942994299
 1 -2.01786598879888  0.39587167846785 -0.48395349694970
 1 -0.40742783678368  0.63082100560056  1.24364661656166
 1 -0.34833078677868 -1.04585756115612  1.31794467036704
 1 -4.99894206190619  6.24107928302830  0.66711849404940
 1 -6.24357902820282  6.52174197299730  1.82321701090109
 1 -5.13512674147415  5.52022719411941  2.40395407410741
 1 -9.85138263716371  5.65956889298930  0.45139298379838
 1 -9.12637327772777  8.03051164066407  0.08924951825183
 1 -7.24844988158816  7.40745131433143  0.04926045544554
 1 -12.29380479327933  2.84035134043404 -2.45044134253425
 1 -13.26315152865286  1.67990362846285 -1.45334885858586
 1 -12.36323328472847  3.03882696809681 -0.62466396439644
 1 -12.37442997109711 -1.82655505370537 -1.27313752165217
 1 -12.99699570317032 -0.31457527052705 -1.41876923392339
 1 -13.21086155235523 -1.73468470767077 -3.64623762146215
 1 -12.31025119911991 -0.00055878177818 -4.04833240824082
 1 -11.31607495509551 -1.63300624462446 -3.58485760126013
 1 -9.28078897479748 -4.77023987228723 -1.60558814021402
 1 -7.93407710871087 -5.94242435063506 -0.79923415151515
 1 -9.14253641944194 -4.98683547054705  0.07087883168317
 1 -3.38218835083508 -3.30225180968097 -0.34350100310031
 1 -1.45465655565557 -4.55801417871787  3.28432511951195
 1 -2.86566175357536 -5.55377602000200  3.67520474257426
 1 -1.64786621312131 -6.31367554465447  2.51279798269827
 1  2.35620029112911 -1.57917760766077 -1.84532860916092
 1  2.61303300350035  0.08019093749375 -1.87209922972297
 1  4.33064228852885 -0.96802480868087  0.40925330153015
 1  4.01389232553255  1.42488358465847 -2.82045538783878
 1  5.37683098149815  2.35580997119712 -1.65337969256926
 1  5.74893021582158  0.93003333353335 -2.93125442474247
 1  6.60554357765777  1.48914514221422  0.24724222192219
 1  6.35870921892189 -0.14313756265627  0.66848785588559
 1  7.39344308640864 -1.27601867356736 -1.38982311101110
 1  7.87342887388739  0.07817469396940 -2.15867601450145
 1  9.17069316651665  0.96793941044104  0.24655861836184
 1  8.72825064786479 -0.81049940534053  0.70506512511251
 1  10.10352206370637  0.01256602290229 -1.86023985458546
 1  9.24028052445245 -2.15154219851985 -1.86800176137614
 1  10.92427551225123 -2.15426193879388 -1.91538772477248
 1  10.07584505810581 -2.70778240084008 -0.55022711341134
 1  11.32031679387939  0.82747715521552  0.34896686008601
 1  11.24665507520752 -0.80338267636764  0.66957443044304
 1  12.87860359605961 -1.63428028942894 -1.09334766966697
 1  12.89412831883188 -0.04082460346035 -1.84203256705671
 1  13.74286578977898  0.72344560006001  0.46385304580458
 1  14.00328641894189 -0.85203764106411  0.97452262196220
 1  15.56151854395440  0.56595645604560 -1.20731039053905
 1  15.57463946494649 -2.63742046794679 -0.15427302490249
 1  14.85926345814581 -2.15068326192619 -1.58874659505951
 1  16.68323638223822 -1.79686361496150 -1.52431454025403
 1  16.21808701840184  1.10099917261726  1.05433885488549
 1  16.72772447444745 -0.55454184988499  1.24628756045605
 1  18.12316150805081 -0.61952891669167 -0.43652966056606
 1  17.49849993119312  0.88846010451045 -1.00155363926393
 1  18.38940762356236  2.08071997159716  1.07070217111711
 1  18.95035131253125  0.51314492579258  1.57088343994399
 1  20.58679874657465  0.12929936573657  0.28525627602760
 1  19.67389422272228  3.06408539343934 -0.74959522902290
 1  21.29589570347035  2.30984686258626 -1.39840109410941
 1  19.77389822302230  1.70905230753075 -1.82418284158416
 1  21.22361237653765  1.25740504430443  2.32719216081608
 1  22.24691933243324  1.98443697489749  1.16839110531053
 1  20.84750728332833  2.94114779097910  1.61220715191519

