%nproc=4
%Mem=2GB
# td=(NStates=1) CAM-B3LYP/6-31G(d,p) 

TD

0 1
12 -7.15731740104010  0.52621086178618  0.09623767236724
 6 -4.91145002610261 -1.96805891719172  0.49589522442244
 6 -4.86349565586559  2.76056038333833  1.21755521272127
 6 -9.40628521732173  3.08124052345235 -0.25713704670467
 6 -9.64038506610661 -1.71640181518152 -0.76098421342134
 7 -5.10041282288229  0.35402666316632  0.68801632203220
 6 -4.37943554885489 -0.76791741214121  0.84651655445545
 6 -2.90477143834383 -0.44333960606061  1.23590903210321
 6 -2.99240953015302  1.12407353985399  1.57644045044504
 6 -4.43188127482748  1.44543492389239  1.10006626782678
 6 -2.75305309630963  1.38306479377938  3.08283180928093
 6 -1.95723000390039 -0.71656566666667  0.09435876167617
 6 -0.52863111711171 -0.52090032143214  0.48060664356436
 6  0.43596297469747 -0.64158759085909 -0.69115076687669
 8  0.11353190289029 -0.93470487428743 -1.88570785108511
 8  1.75385241024102 -0.62906781358136 -0.24926914701470
 7 -7.12122973147315  2.58689009630963  0.31685684248425
 6 -6.18744587558756  3.28020897479748  0.84460244424442
 6 -6.44726271597160  4.72750338073807  0.91339910441044
 6 -7.74001459685969  4.87266715341534  0.51581848884888
 6 -8.13645419861986  3.42542283358336  0.13337367656766
 6 -5.49321510271027  5.90663175447545  1.20387691289129
 6 -8.58401761416142  6.02755782378238  0.31873189508951
 6 -8.14428362616261  7.17975405970597 -0.02066632893289
 7 -9.16558159385939  0.67528400670067 -0.57219892519252
 6 -9.88627028602860  1.82238292089209 -0.54715984018402
 6 -11.29631437433743  1.47702869326933 -1.05584033363336
 6 -11.31635015571557  0.15796967426743 -1.19397866406641
 6 -10.02450233393339 -0.44502299039904 -0.80311961486149
 6 -12.34140238233823  2.51588386928693 -1.31832236313631
 6 -12.41577162286229 -0.72902396459646 -1.58333351055106
 6 -12.31744807680768 -0.93072695789579 -3.18900700610061
 7 -7.27339359145915 -1.38418778037804 -0.17995111381138
 6 -8.36088131043104 -2.21940788028803 -0.44861266716672
 6 -7.89194686218622 -3.56841102400240 -0.50608903790379
 6 -6.52569809180918 -3.57425174067407 -0.12841533363336
 6 -6.18510328852885 -2.17433358785879  0.06147776917692
 6 -8.78876922162216 -4.79129194809481 -0.63205275227523
 6 -5.37765430313031 -4.38539452475248  0.20459895979598
 8 -5.20812217401740 -5.57901055465547  0.23541957675768
 6 -4.19819322932293 -3.32603553765377  0.55934682668267
 6 -3.47631199539954 -3.56940302490249  1.88101928162816
 8 -3.62536619121912 -3.01182441524152  2.91460517581758
 8 -2.58839018691869 -4.60241839433943  1.64572266026603
 6 -1.96320895939594 -5.26656712601260  2.71258259525953
 6  2.85162893949395 -0.64922418011801 -1.28276365126513
 6  4.11464478687869 -0.40541439083908 -0.54110663936394
 6  5.11678528592859  0.28915223972397 -0.98830873107311
 6  5.15910332693269  1.04247878417842 -2.24147123822382
 6  6.47945440304030  0.38030683758376 -0.19631631783178
 6  7.55671341024102 -0.17995987788779 -1.10761042974297
 6  8.91126020842084 -0.16944667816782 -0.16964955915592
 6  10.19621051405140 -0.66160325862586 -0.94073046744674
 6  10.12521970817082 -2.17846718161816 -1.23193485498550
 6  11.45505662276228 -0.18912980358036 -0.07463726502650
 6  12.76474364336434 -0.41852836873687 -0.75571611141114
 6  14.00282597039704  0.01626486328633  0.06356356935694
 6  15.42375771977198 -0.13781639333933 -0.55165821612161
 6  15.76168027022702 -1.65415820162016 -0.96976425622562
 6  16.49314256825683  0.34665905200520  0.39347853255326
 6  17.89680538483848  0.72328045384538 -0.14646292619262
 6  18.78358375787579  1.27669951675168  0.84997735943594
 6  20.29591727152715  1.41399714431443  0.39180878447845
 6  20.43496372527252  2.26436208420842 -0.79189501090109
 6  21.14732260636064  1.89773414281428  1.51746844844484
 1 -4.14109436793679  3.47708609030903  1.73200772177218
 1 -10.24476822852285  3.84159174307431 -0.23858816141614
 1 -10.43042230403040 -2.71061111581158 -1.00288383588359
 1 -2.41354004470447 -1.15615527922792  1.99564680328033
 1 -2.08143778177818  1.54301278987899  1.09359372587259
 1 -1.56704042734273  0.90271576057606  3.35539575297530
 1 -3.05581036723672  2.39921937853785  3.41220578807881
 1 -3.57803878507851  0.63525789348935  3.49550343484349
 1 -1.97608013491349 -1.77373329372937 -0.44305929192919
 1 -2.18245244744474 -0.09925783448345 -0.78598369997000
 1 -0.15654274827483  0.51621954545455  0.92675492739274
 1 -0.26002195589559 -1.22686566196620  1.14521739763976
 1 -5.16403857155716  6.30276545164516  0.24072585478548
 1 -6.01632630293029  6.56477627642764  1.93511820102010
 1 -4.62414564336434  5.51386655805581  1.88801247994799
 1 -9.69111661056106  5.91850478657866  0.38991683618362
 1 -8.88590923132313  8.24612320182018 -0.32815222192219
 1 -7.01099613621362  7.59240981018102 -0.15847031763176
 1 -12.17743315611561  3.04088139343934 -2.26337263566357
 1 -13.32758797229723  2.01197683578358 -1.32456598029803
 1 -12.22504946634664  3.39763284868487 -0.37362886088609
 1 -12.63864639273927 -1.76360875907591 -1.21178138603860
 1 -13.22219822342234 -0.21287510051005 -1.34169152615261
 1 -13.24187465366536 -1.48467970717072 -3.52402540024002
 1 -12.23322349634964  0.06289756385639 -3.76691426642664
 1 -11.38951229882988 -1.83368631263126 -3.56786590209021
 1 -9.13648454435444 -4.96730957925793 -1.65758333973397
 1 -8.17432113311331 -5.72613272147215 -0.59084331243124
 1 -9.59309147494749 -4.93338012501250  0.09117086088609
 1 -3.39608974097410 -3.48051963646365 -0.16402305530553
 1 -1.33572466246625 -4.31867024432443  2.98102478947895
 1 -2.70250543794379 -5.61265190759076  3.44560178227823
 1 -1.39357078357836 -6.08289246634664  2.49002570547055
 1  2.75647031813181 -1.75264495439544 -1.60134421072107
 1  2.43503520372037  0.09773269166917 -2.00366238603860
 1  4.23889311361136 -0.92864087028703  0.38037041324132
 1  4.08666960326033  1.26275737203720 -2.36490983328333
 1  5.81894519291929  2.23442783298330 -2.11184553915392
 1  5.68309363216322  0.68090842104210 -3.06570787008701
 1  6.60002302560256  1.41979820752075  0.10698819651965
 1  6.57619096709671  0.00207695879588  0.92099310641064
 1  7.36121986408641 -1.28318939063906 -1.36070019871987
 1  7.70718224922492  0.28429530603060 -1.95764591149115
 1  9.22188828602860  0.90257287378738  0.06361032353235
 1  8.75108293109311 -0.91914026942694  0.61295591419142
 1  10.22490420192019 -0.10571580528053 -1.79451328192819
 1  9.31035753215322 -2.24074111841184 -1.97232219341934
 1  11.03065615031503 -2.57818433103310 -1.75298148414842
 1  9.89147662126213 -2.92117373997400 -0.41908399909991
 1  11.21965672787279  0.85317972547255  0.13133509690969
 1  11.36500691039104 -0.65812815091509  1.10401787478748
 1  12.86771250695070 -1.50902776417642 -0.92656099099910
 1  12.53202210821082  0.31798127712771 -1.80139850365037
 1  13.98993049624963  1.06124938043804  0.19516617711771
 1  13.80130622092209 -0.53084552185219  1.17581275097510
 1  15.22760515261526  0.44456431683168 -1.29254891439144
 1  15.84739674067407 -2.29765649154916 -0.07769536713671
 1  14.94426195799580 -2.15865405900590 -1.66155387578758
 1  16.52199025762576 -1.76327025562556 -1.70707281608161
 1  15.94019922962296  1.32174124682468  0.77090051105111
 1  16.60420212221222 -0.22504890059006  1.20915384708471
 1  18.44809400130013 -0.35111207500750 -0.46865287288729
 1  18.01853193439344  1.25219647814781 -1.01874535843584
 1  18.37698638143814  2.13288518811881  1.20331543244324
 1  18.93799007640764  0.77943155445545  1.78868522012201
 1  20.44257432413241  0.48405484128413  0.07729547994800
 1  19.96019285258526  3.37852683758376 -0.66960723022302
 1  21.39589570347035  2.24340021792179 -1.12702395639564
 1  19.75597643084308  1.99277067936794 -1.59911033433343
 1  21.04149416471647  1.12971227502750  2.40336977857786
 1  22.25332997349735  1.98302683388339  1.18820308650865
 1  21.02151468406841  2.92555623182318  1.77820375157516

