%nproc=4
%Mem=2GB
# td=(NStates=1) CAM-B3LYP/6-31G(d,p) 

TD

0 1
12 -7.20035170447045  0.57145538623862  0.05855390399040
 6 -4.80372925402540 -1.89568167946795  0.48126376127613
 6 -4.78455776207621  2.90590491779178  1.11938539573957
 6 -9.46224081288129  3.02386478587859 -0.32477381038104
 6 -9.57738876647665 -1.80571074607461 -0.75929404440444
 7 -5.12623540514051  0.44355561606161  0.66040356075608
 6 -4.30564817011701 -0.66771739213921  0.65862776557656
 6 -2.93551451265126 -0.31215648774877  1.20543598479848
 6 -3.06373666286629  1.19986111861186  1.72604541094109
 6 -4.40225831253125  1.53089346974697  1.14339060026003
 6 -2.96572436343634  1.38504499179918  3.20119364546455
 6 -1.82651693259326 -0.59635364546455  0.17889721552155
 6 -0.37138539253925 -0.43735196659666  0.54600318321832
 6  0.49341872027203 -0.59706313841384 -0.65052670447045
 8  0.11775232493249 -0.97344874867487 -1.68214749504950
 8  1.79020604560456 -0.44004891169117 -0.21585580568057
 7 -7.11294890339034  2.54851625892589  0.34982013881388
 6 -6.12317944894489  3.33948490239024  0.74951293529353
 6 -6.49461745144515  4.76344697509751  0.66991475597560
 6 -7.83103369876988  4.77864775147515  0.37625453245325
 6 -8.19070962416242  3.40044033533353  0.13263360256026
 6 -5.63987976917692  5.74196528782878  1.26831335653565
 6 -8.77564677707771  5.84217928592859  0.33497351925193
 6 -8.42348154595459  7.17000308460846  0.19555529322932
 7 -9.17688272397240  0.61447792609261 -0.46735844114411
 6 -9.93773543254325  1.73741442404240 -0.54892001620162
 6 -11.23419816271627  1.49971096149615 -0.98761351095110
 6 -11.26789531023102  0.09902377967797 -1.23810307650765
 6 -9.95805568926893 -0.44955344344434 -0.71344064696470
 6 -12.30822906500650  2.47369965086509 -1.19626015691569
 6 -12.39591963766377 -0.75504656685669 -1.80597577477748
 6 -12.20360669266927 -1.12762664786479 -3.23798190359036
 7 -7.25462171427143 -1.38834819641964 -0.11329444814481
 6 -8.29738496079608 -2.31383732323232 -0.47442524842484
 6 -7.84930259775978 -3.57978216111611 -0.45310373937394
 6 -6.51605712771277 -3.54150846634663 -0.09020151225123
 6 -6.17081185938594 -2.21207736223622  0.11201282268227
 6 -8.67088743344334 -4.81113393229323 -0.77044659165917
 6 -5.29572611031103 -4.35035102040204  0.14435293519352
 8 -5.09757111891189 -5.48307096069607  0.14303033783378
 6 -4.06486989698970 -3.25812874697470  0.47897878987899
 6 -3.51280564476448 -3.64305038963896  1.80931211091109
 8 -3.76727038163816 -3.21882511531153  2.96545026032603
 8 -2.70135148304831 -4.71303945644564  1.65407349534953
 6 -2.19924256275628 -5.16741721102110  2.87289862686269
 6  2.77258103470347 -0.54288354605461 -1.30684605950595
 6  4.12053537593759 -0.38816266566657 -0.59127165586559
 6  5.15153876127613  0.44895822032203 -1.05127502770277
 6  5.07173459005901  1.28222275857586 -2.29955704680468
 6  6.46767322492249  0.42578138503850 -0.18491517771777
 6  7.61671941084108 -0.12115399729973 -0.95290495919592
 6  8.86311539393939 -0.18341807530753 -0.12556515071507
 6  10.27211810481048 -0.44791188948895 -0.95990238463846
 6  10.20544773097310 -1.97452678757876 -1.45474713621362
 6  11.46116723382338 -0.27610850145015 -0.03321312261226
 6  12.79660682968297 -0.48259477537754 -0.67116765656566
 6  14.01702739053905 -0.07807457065707  0.09356656965697
 6  15.39137448144814 -0.21136374807481 -0.54036708700870
 6  15.73943804600460 -1.63241602740274 -0.81580886068607
 6  16.38582183618362  0.33090747684768  0.39524870957096
 6  17.86217192149215  0.53006113191319 -0.19042732263226
 6  18.80430583008301  1.32091393819382  0.84222658435844
 6  20.28251593139314  1.25591133573357  0.30484008760876
 6  20.43147337623762  1.92176782478248 -1.05422124352435
 6  21.23881175527553  1.82310668006801  1.42611931353135
 1 -3.94563482198220  3.74212259395940  1.34500902190219
 1 -10.07355110681068  3.81413899779978 -0.16132043464346
 1 -10.27338660046004 -2.50919097379738 -1.08054160166017
 1 -2.69558824952495 -0.97277694139414  2.18540577917792
 1 -2.35461509950995  1.88823731233123  1.39211357785778
 1 -1.93204692799280  1.23862935193519  3.60305051845185
 1 -3.25373015921592  2.51415087168717  3.17836240374037
 1 -3.49272025322532  0.65201956965697  3.86608049254925
 1 -1.94944747164716 -1.62530845124512 -0.15921090709071
 1 -1.98765296749675  0.08270036133613 -0.61858696029603
 1  0.04662756875688  0.56336425992599  1.21437368926893
 1 -0.28537449114912 -1.04270724612461  1.40385326122612
 1 -4.99214138183818  6.14246942204220  0.38656043824382
 1 -6.18332300260026  6.65026482528253  1.37168185738574
 1 -5.15895912471247  5.55364053545355  2.14059773847385
 1 -9.87018451735173  5.87659059515952  0.79659750425043
 1 -9.13539417981798  7.95328391789179  0.35537613091309
 1 -7.41497653425343  7.45329589878988 -0.31027549814982
 1 -12.23311872467247  3.29568687398740 -2.00567686608661
 1 -13.36465167866787  2.12745838393839 -1.36201972567257
 1 -12.40331729312931  3.23712679807981 -0.46275777377738
 1 -12.45637816591659 -1.66321872007201 -1.18059826772677
 1 -13.26004200780078 -0.18866267926793 -1.72424978197820
 1 -12.93824429062906 -1.81140237943794 -3.27917091479148
 1 -12.09306948094810 -0.47049577547755 -4.00139771477148
 1 -11.23399674727473 -1.74881782578258 -3.37111622712271
 1 -8.64744564046405 -5.00729357765777 -1.96487406880688
 1 -8.14648834983498 -5.83531363956396 -0.10077430553055
 1 -9.89189135493549 -4.56932371937194 -0.47035529172917
 1 -3.17928806080608 -3.38557014151415 -0.32848950195019
 1 -1.76977806780678 -4.41447982528253  3.86514320132013
 1 -3.12811799919992 -5.67088773117312  3.33807102920292
 1 -1.30881230773077 -5.85909008610861  2.58776547944794
 1  2.64127879897990 -1.48614830473047 -1.88161223752375
 1  2.51819351955196  0.25715863426343 -2.08037005680568
 1  4.18069729402940 -0.82650065626563  0.41454383058306
 1  4.18119905620562  1.55968706500650 -2.67625096739674
 1  5.60544384278428  2.24404879507951 -1.78327268186819
 1  5.83081840464046  1.08075840604060 -3.17147844714471
 1  6.89531255455546  1.37818404610461  0.27933543124312
 1  6.43560690869087 -0.12157540644064  0.72218322542254
 1  7.62668641074107 -1.19473054475448 -1.27330145884588
 1  7.79556108710871  0.44601147764777 -1.88936908380838
 1  8.93848994619462  0.64072668916892  0.49738370087009
 1  8.77913573637364 -0.67179553495350  0.80019463806381
 1  10.51712342384238  0.34865963226323 -1.81714554515452
 1  9.39393588998900 -2.42118916321632 -2.10926588778878
 1  11.19326241094109 -2.09062557515752 -2.13052923892389
 1  10.58523599719972 -2.74213583618362 -0.68707079777978
 1  11.16406116831683  0.79110351785179  0.31082304570457
 1  11.15959636933693 -0.76808914701470  0.82189966296630
 1  12.58029376507651 -1.68325518691869 -0.83184151905191
 1  12.85137404340434  0.10167964696470 -1.67580594439444
 1  13.82474397759776  0.99165242074207  0.52040870137014
 1  14.13464955525552 -0.72351478877888  1.17533270297030
 1  15.27111950405041  0.44782464286429 -1.39190885038504
 1  15.59110111111111 -2.17443416931693 -0.08430602820282
 1  15.16134366616662 -2.16389458305831 -1.66286400680068
 1  16.68995705430543 -1.62467639623962 -0.93485559435944
 1  16.00849605930593  1.05653472617262  0.84152757375738
 1  16.76494819681968 -0.39014541024102  1.29973290499050
 1  18.37456664856486 -0.45657262106211 -0.37647365496550
 1  17.81234131533153  1.14988624712471 -1.21956544044404
 1  18.54370305310531  2.21319321892189  1.01439654055406
 1  18.61920819821982  0.85215882718272  1.67602395399540
 1  20.66842690939094  0.19426586238624  0.36769451985199
 1  20.28542537583758  3.02729171407141 -0.86712698219822
 1  21.54906102000200  1.69203508140814 -1.36075732973297
 1  20.01960279347935  1.45503690599060 -1.95249567286729
 1  21.29390940624062  1.14360366416642  2.26130557215722
 1  22.27254189468947  1.99610814201420  1.34784905110511
 1  20.89129166176618  2.75859953615362  1.85315124632463

