%nproc=4
%Mem=2GB
# td=(NStates=1) CAM-B3LYP/6-31G(d,p) 

TD

0 1
12 -7.11656332563256  0.65191343204320  0.10489853845385
 6 -4.80851973307331 -1.94296640794079  0.54677031193119
 6 -4.83285259155916  2.73438776607661  1.21597505470547
 6 -9.39546413521352  3.13117551695169 -0.30704203720372
 6 -9.55990701830183 -1.74142431743174 -0.74476259125913
 7 -5.13507628922892  0.46456771727173  0.73606112651265
 6 -4.34092169746975 -0.71746236663666  0.79105100790079
 6 -2.92711367256726 -0.44063933603360  1.28552399359936
 6 -3.08982927212721  1.08683981648165  1.71882468886889
 6 -4.35824391109111  1.48869925032503  1.18784504570457
 6 -2.88994678567857  1.28791527882788  3.20894442054205
 6 -1.96512079297930 -0.65203921402140  0.15935526132613
 6 -0.50994924892489 -0.41333956535654  0.53129171207121
 6  0.47540691909191 -0.56855028712871 -0.68267991979198
 8  0.21396194589459 -0.97271867566757 -1.81441072137214
 8  1.74213123812381 -0.29468437523752 -0.31864608470847
 7 -7.10499810831083  2.63647505480548  0.28587374417442
 6 -6.05091222222222  3.29456040994099  0.90724870887089
 6 -6.50062805250525  4.79755038543854  0.93069083358336
 6 -7.81899249464946  4.93422330903090  0.47797470447045
 6 -8.17634818801880  3.40866115741574  0.14697503670367
 6 -5.66963274447445  5.87130822212221  1.38160468566857
 6 -8.63779299169917  5.96408147614761  0.43634365626563
 6 -8.15850504830483  7.21629771407141  0.09920565826583
 7 -9.05937097279728  0.69958643694369 -0.46608831413141
 6 -9.88740039903990  1.80484116671667 -0.67419254345435
 6 -11.19669441234123  1.37127811821182 -1.10956570617062
 6 -11.18566708740874 -0.01540766346635 -1.25818508470847
 6 -9.88973885758576 -0.37639612771277 -0.78326762966297
 6 -12.29118736083608  2.39346162706271 -1.41186171707171
 6 -12.35299534523452 -0.78485954815482 -1.85045022222222
 6 -12.19625595759576 -1.24106799199920 -3.38634674007401
 7 -7.16606285838584 -1.36408577017702 -0.18218133683368
 6 -8.31384660696070 -2.18928486798680 -0.46223402930293
 6 -7.79654732223222 -3.55494967786779 -0.44619304830483
 6 -6.48475399739974 -3.54628894439444 -0.05860835293529
 6 -6.12782756095610 -2.15687184168417  0.18335995739574
 6 -8.58462880758076 -4.81673449234924 -0.73752329932993
 6 -5.34400093779378 -4.32015800110011  0.33687218711871
 8 -5.24448581038104 -5.50927358095810  0.24487052185219
 6 -4.25644905490549 -3.33131606570657  0.54249514151415
 6 -3.58961332553255 -3.72084816941694  1.87791897159716
 8 -3.56256991159116 -3.06477971077108  2.89444315961596
 8 -2.79519086698670 -4.80346849934993  1.71785987398740
 6 -2.16882952145215 -5.23973444274427  2.91036237323732
 6  2.78180195679568 -0.57038629632963 -1.21471684658466
 6  4.08314163656366 -0.27297114651465 -0.54179670837084
 6  5.11051465886589  0.44755808030803 -1.04597449764976
 6  5.06593401000100  1.25107964426443 -2.40208729982998
 6  6.45150160776078  0.47656646354635 -0.38736542274227
 6  7.63881162006201 -0.15476735863586 -1.07454712341234
 6  8.97458654105411 -0.10036977047705 -0.27945053925393
 6  10.22718361136114 -0.53493059135914 -0.99255564996500
 6  10.20286747294730 -2.06879621452145 -1.44253591509151
 6  11.46998811591159 -0.31557244784478 -0.23943374467447
 6  12.79561673067307 -0.66767328322832 -0.89662020182018
 6  14.01036672447245 -0.32761952515252  0.02006921992199
 6  15.39230457445745 -0.26679929162916 -0.48702175247525
 6  15.77414151635164 -1.70699348514851 -0.78126540634063
 6  16.38414166816682  0.25080946704670  0.58728791349135
 6  17.86823252755276  0.51635976177618 -0.06315459535954
 6  18.72649804930493  1.21207305410541  0.84906726842684
 6  20.21386906670667  1.43048879347935  0.36853645724572
 6  20.27554778367837  2.28305395339534 -0.89054487588759
 6  21.09687756185619  1.99497386678668  1.45358205980598
 1 -4.14592485098510  3.44703308500850  1.51747626862686
 1 -10.05436918861886  4.00474805870587 -0.40886518911891
 1 -10.52441170297030 -2.31507156185619 -0.91188473597360
 1 -2.69250794149415 -0.96614627832783  2.24796203480348
 1 -2.17475711371137  1.76598508710871  1.29484385088509
 1 -1.82468619191919  1.21807729672967  3.52495270867087
 1 -3.21787657385739  2.08759821642164  3.69281384888489
 1 -3.48096907810781  0.44920928862886  3.74670855535554
 1 -2.09043157005700 -1.54755067546755 -0.57100208620862
 1 -2.19629383158316  0.09097118841884 -0.62689779137914
 1 -0.37651474547455  0.64934285778578  0.73865611751175
 1 -0.13768972267227 -1.18410138553855  1.26968984488449
 1 -4.84396656435644  6.03020819591959  0.58006978917892
 1 -6.40876554685469  6.85672547134713  1.51716640584058
 1 -5.12478570737074  5.47906307770777  2.36344002270227
 1 -9.73297079597960  5.89225216131613  0.71834967946795
 1 -8.98265890629063  7.87995658515852 -0.02499190589059
 1 -7.12246728332833  7.51133170237024 -0.23314778537854
 1 -12.13782919571957  2.91990929622962 -2.52599889828983
 1 -13.53500871437144  1.90358599669967 -1.25313883758376
 1 -12.38599556095610  3.12336542194219 -0.66448794679468
 1 -12.27912044014401 -1.66127852605261 -1.06257646554655
 1 -13.28900490409041 -0.27778159115912 -1.68053541054105
 1 -12.92809327552755 -2.14533577277728 -3.49984298199820
 1 -12.22453262726273 -0.36107483338334 -4.13617119211921
 1 -11.22821616921692 -1.77678062206221 -3.48654777027703
 1 -9.02648354425443 -4.99186203450345 -1.68647622902290
 1 -8.07265096609661 -5.77157726592659 -0.61949617771777
 1 -9.56257842364236 -4.77671445844584 -0.16618487468747
 1 -3.52177230923092 -3.65726731123112 -0.33218987198720
 1 -1.28705979597960 -4.45205358265827  3.15758244524452
 1 -2.90553574097410 -5.58210885328533  3.60124734683468
 1 -1.83497492399240 -6.28397257435744  2.49290599349935
 1  2.50651532263226 -1.76996668656866 -1.46104018031803
 1  2.72309400960096 -0.10196727832783 -2.12580460026003
 1  4.32908213251325 -0.92620062626263  0.32460483668367
 1  3.92231316761676  1.40926202250225 -2.64571791409141
 1  5.45779907830783  2.32015640584058 -2.40268462306231
 1  5.58989431223122  0.59810014021402 -3.02722402170217
 1  6.61923494679468  1.53426965466547 -0.10827332963296
 1  6.24525787378738  0.25040179127913  0.70391139823982
 1  7.30653439553955 -0.92934400610061 -1.58579270797080
 1  7.87329886088609  0.66959383588359 -2.06321646854685
 1  9.08431452865286  0.60072268876888  0.14601856435644
 1  8.85293311611161 -0.78587694309431  0.56934155275528
 1  10.30856256775678 -0.03151838553855 -2.07014084468447
 1  9.23426992339234 -2.36362340664066 -1.82219718091809
 1  11.07706079077908 -2.48576508910891 -1.99113529952995
 1  10.12609008260826 -2.55079670227023 -0.51239333003300
 1  11.50594535673567  0.70466487398740 -0.06036407300730
 1  11.31463187288729 -0.83650598869887  0.70734820782078
 1  12.82290802650265 -1.70252711411141 -1.20724905980598
 1  12.86665557155716 -0.03336385738574 -1.77750611441144
 1  13.86643814701470  0.83049630513051  0.32840950145014
 1  13.95807189748975 -0.82671510881088  1.14147931763176
 1  15.36163855595560  0.33208306870687 -1.32228188768877
 1  15.61387338833883 -2.22364909080908  0.15462786518652
 1  15.02279981178118 -2.03310150375037 -1.55350307070707
 1  16.61074913351336 -1.95664959355936 -1.30920302910291
 1  15.95271048074807  1.18628770147015  0.76810023102310
 1  16.46542824482448 -0.22095849154916  1.53529646134613
 1  18.15321451335134 -0.41392835663566 -0.56435244284428
 1  17.65915599679968  1.09802106060606 -0.91777526142614
 1  18.28755743854385  2.17813971357136  0.92695779667967
 1  18.76942321972197  0.62967657895790  1.83743009460946
 1  20.30984105080508  0.26800323612361  0.17689543994399
 1  19.62662949624963  3.22169115401540 -0.80759102860286
 1  21.49915602950295  2.91276715461546 -1.05597685168517
 1  19.73816464966497  1.77804920722072 -1.76733715701570
 1  21.10732074737474  1.26422572637264  2.25173461506151
 1  22.07691233173317  2.27280581178118  1.04649891609161
 1  20.46609914251425  3.00788446464647  1.76413234443444

