%nproc=4
%Mem=2GB
# td=(NStates=1) CAM-B3LYP/6-31G(d,p) 

TD

0 1
12 -7.10464213351335  0.56704494519452  0.11765981458146
 6 -4.86333521462146 -1.97149926122612  0.46325196009601
 6 -4.78077738403840  2.80174450175017  1.26068952615261
 6 -9.45016960576057  3.08844124352435 -0.28833016601660
 6 -9.51230225782578 -1.68038821382138 -0.93889200420042
 7 -5.12487526912691  0.54664592509251  0.71774929532953
 6 -4.36050365566557 -0.65619624002400  0.76420832363236
 6 -2.83150411161116 -0.36499177127713  1.16729217041704
 6 -2.98881917111711  1.05980711321132  1.62351515791579
 6 -4.26687477417742  1.49422980338034  1.11002726392639
 6 -2.71289908090809  1.30110659795980  3.16773029912991
 6 -1.93295757665767 -0.67316132623262  0.02773209900990
 6 -0.50508876287629 -0.58273650505051  0.50277886078608
 6  0.50764014241424 -0.89613304540454 -0.51822347414741
 8  0.29184973467347 -1.19180058385839 -1.66757603790379
 8  1.74208123312331 -0.52442734953495 -0.15716993709371
 7 -7.11029863836384  2.54066547384738  0.41990714751475
 6 -6.01756888788879  3.32186314021402  0.84630261426143
 6 -6.45810380008001  4.72738336873687  0.98482624712471
 6 -7.71773236863686  4.87647753445345  0.45994290129013
 6 -8.14135468866887  3.44612490379038  0.22255259445945
 6 -5.45556133733373  5.81483257455746  1.38268479367937
 6 -8.67009622202220  5.98023309130913  0.32392241414141
 6 -8.36642584038404  7.29292537683768 -0.01250551285129
 7 -9.16109114481448  0.66718319661966 -0.52158386368637
 6 -9.89492115111511  1.84200488308831 -0.62486761096110
 6 -11.18214295719572  1.47101809220922 -1.17335208480848
 6 -11.18292681338134  0.10665454275428 -1.28558782498250
 6 -9.84549443314331 -0.31520000810081 -0.90147945084508
 6 -12.26051429352935  2.43249553045304 -1.37953848474847
 6 -12.36881692739274 -0.71476253845385 -1.74418959615962
 6 -12.32996932893289 -1.20786467166717 -3.24441254665467
 7 -7.31072732483248 -1.39428879047905 -0.18904202290229
 6 -8.28541376367637 -2.27594353385339 -0.53808161406141
 6 -7.81043871137114 -3.61138532143214 -0.47962639163916
 6 -6.51597711971197 -3.55741005650565 -0.14535702780278
 6 -6.19492427062706 -2.20075623012301  0.10110173157316
 6 -8.57192753745374 -4.81114393329333 -0.96551609860986
 6 -5.30368690639064 -4.36064204950495  0.08204670457046
 8 -5.21490285208521 -5.56427908150815  0.05405143994399
 6 -4.19692310231023 -3.33904683878388  0.54930582258226
 6 -3.61901626582658 -3.69358544314431  1.86925810551055
 8 -3.69558321292129 -3.01708494129413  2.94514823012301
 8 -2.75240658855886 -4.79772792529253  1.81062915091509
 6 -1.86089872837284 -5.12065253455346  2.98096943394339
 6  2.79003277987799 -0.66133539123912 -1.12353772867287
 6  4.08690201260126 -0.34968881828183 -0.53282581128113
 6  5.06216982438244  0.50181350585059 -0.84463436363636
 6  4.87128454505450  1.30725526182618 -2.13088017911791
 6  6.39199565716572  0.62880168706871 -0.18069475567557
 6  7.57323506240624  0.02250036813681 -0.93255292399240
 6  8.84202328472847 -0.09045877937794 -0.11674426862686
 6  10.15953684668467 -0.49277637593759 -0.90033642804280
 6  10.05314250045005 -2.03028236313631 -1.22574423592359
 6  11.43124424152415 -0.23179407000700 -0.04691449274927
 6  12.66769393839384 -0.47757427332733 -0.73085362516252
 6  13.94964065186519 -0.08357512071207  0.11429864286429
 6  15.37574291829183 -0.23932654435444 -0.57908095839584
 6  15.60396449864987 -1.80715350115011 -0.78204548434843
 6  16.38849210321032  0.37960234633463  0.45637482218222
 6  17.73805951025103  0.53453157895790 -0.28295657555756
 6  18.81238663816382  1.29122096889689  0.69265162686269
 6  20.29560724052405  1.35500124472447  0.19294889848985
 6  20.38585881478147  2.15192084008401 -1.03575939733973
 6  21.20028790289029  1.85783015241524  1.28026472807281
 1 -4.03104336283628  3.49644802650265  1.51025554655465
 1 -10.14531828352835  3.88474605850585 -0.62582688528853
 1 -10.35192445424542 -2.54036409110911 -1.12792634013401
 1 -2.69618830953095 -1.02469213291329  1.98438567716772
 1 -2.06460609860986  1.47621611021102  1.16987135363536
 1 -1.64669839313931  1.38039352835284  3.37311752515252
 1 -3.02667745394539  2.30096955355536  3.26837140464046
 1 -3.30925190639064  0.62883725142514  3.74668855335534
 1 -2.23645617251725 -1.64903082348235 -0.34004899089909
 1 -1.82339654185419  0.07609970127013 -0.83350845244524
 1 -0.23708080208021  0.37773569706971  0.86579883178318
 1 -0.34732068576858 -1.20174314971497  1.25074795069507
 1 -4.71327349504951  6.19894506960696  0.57336911911191
 1 -5.94574924522452  6.78294809360936  1.92065675487549
 1 -4.82745597439744  5.51252642404241  2.20076375507551
 1 -9.77908540744074  5.80014295039504  0.35492333683368
 1 -9.13964460486049  8.13615220472047  0.01872246554655
 1 -7.03367840444044  7.58653922312231  0.36565209460946
 1 -12.01785719851985  3.19394669997000 -2.25887218561856
 1 -13.22714792829283  2.03270890899090 -1.53149667336734
 1 -12.44132109350935  3.25675876127613 -0.54699619761976
 1 -12.48328085618562 -1.78334073227323 -1.29607981588159
 1 -13.37398340194019 -0.21436524952495 -1.47633499049905
 1 -13.66374684088409 -1.56264750395040 -3.36789978767877
 1 -12.44206438043805 -0.47972669856986 -3.94053162816282
 1 -11.55152850045005 -1.84764770877088 -3.44456357185719
 1 -9.07932882878288 -4.77298014631463 -2.04143172457246
 1 -7.97302100310031 -5.79571968016802 -1.04061828992899
 1 -9.48163032883288 -5.10580736773677 -0.10307856405641
 1 -3.35963609560956 -3.59295087958796 -0.21561821482148
 1 -1.43301439143914 -4.12653103040304  3.14877156415642
 1 -2.59766495389539 -5.24949559195920  3.79087630973097
 1 -1.05482690919092 -6.01260543764376  2.84477118001800
 1  2.88092276337634 -1.80144983488349 -1.33173725002500
 1  2.54193589378938 -0.12995007660766 -2.14064608440844
 1  4.40325955025503 -1.05665367156716  0.39228160436044
 1  3.81476241254125  1.12639373567357 -2.52986632893289
 1  4.77378067646765  2.36044043424342 -1.88331268586859
 1  5.54937025982598  0.95928625882588 -3.05772707200720
 1  6.51641466476648  1.60135636333633 -0.01833433573357
 1  6.28364171217122  0.08373512461246  0.85610661776178
 1  7.46241998409841 -1.05972704440444 -1.28614274297430
 1  7.71892342334233  0.75903277977798 -1.68306845374537
 1  9.11071716891689  0.92779539603960  0.38730269276928
 1  8.50281810461046 -0.70219857525753  0.79850446904690
 1  10.15335704720472 -0.01442667636764 -1.82792662326233
 1  9.16698319471947 -2.42819986428643 -1.73651861306131
 1  11.00530361506151 -2.33380989358936 -1.89376556255626
 1  9.98061553515352 -2.60280190279028 -0.18481057175718
 1  11.45218998119812  0.75448985648565  0.30533249664967
 1  11.36474688438844 -0.87717005510551  0.90663813681368
 1  12.75318105380538 -1.65072193359336 -1.10696903180318
 1  12.61518042404241  0.17080655965597 -1.49046741054105
 1  13.83530503370337  1.00584383988399  0.13513017351735
 1  14.04410050035003 -0.52986542384238  1.23278844854485
 1  15.37281967406741  0.14170403080308 -1.53773343284328
 1  15.54081608260826 -2.55204193009301  0.09657205960596
 1  14.93736126792679 -2.01025921952195 -1.58255597599760
 1  16.59668772737274 -1.96921084968497 -0.90362247104710
 1  15.98020323002300  1.42389146184618  0.57670109110911
 1  16.56608831083108 -0.25168156385639  1.37021995369537
 1  18.34509370127013 -0.42781974577458 -0.32082809040904
 1  17.76373645484549  1.01194245274527 -1.14360784468447
 1  18.35323400620062  2.38845074467447  0.85895099599960
 1  18.80862714011401  0.67650126142614  1.70553690529053
 1  20.62086215291529  0.23619005480548 -0.03733598319832
 1  20.04739157245725  3.13182216711671 -0.86491676117612
 1  21.38941505540554  2.34809068696870 -1.38015926992699
 1  19.62864369756976  1.72671407370737 -1.78465888918892
 1  21.08864888018802  1.16268557235724  2.10671011261126
 1  22.41436607710771  1.99811834303430  1.02402666886689
 1  21.07070960356036  2.98736241244124  1.54051998319832

