%nproc=4
%Mem=2GB
# td=(NStates=1) CAM-B3LYP/6-31G(d,p) 

TD

0 1
12 -7.17970964026403  0.51848008870887  0.11211926052605
 6 -4.75235411651165 -1.98434054535454  0.43066870177018
 6 -4.75727503380338  2.82717704500450  1.19168262546255
 6 -9.42394698349835  3.11643404280428 -0.25042637563756
 6 -9.56543757135714 -1.74695487048705 -0.65404351935194
 7 -5.03807658925893  0.40712197269727  0.81283880428043
 6 -4.30457806310631 -0.77069769016902  0.77578948174817
 6 -2.90278123932393 -0.35528080018002  1.22945838703870
 6 -2.97636792599260  1.06784791729173  1.63543635003500
 6 -4.38192627932793  1.47859824022402  1.11752801400140
 6 -2.85660345134513  1.21395788308831  3.17934146024602
 6 -1.81033531443144 -0.55320933103310  0.02425175097510
 6 -0.46198445244524 -0.44918314971497  0.53817240014001
 6  0.48929830823082 -0.53850728282828 -0.73276492829283
 8  0.13081363106311 -0.81944334813481 -1.87561684198420
 8  1.68951597659766 -0.33870877767777 -0.24515873597360
 7 -7.13458106660666  2.52305371267127  0.37393255005501
 6 -6.09794692569257  3.30043099699970  0.79369735373537
 6 -6.49498748844884  4.70720135053505  0.79396716121612
 6 -7.75210580598060  4.89884977167717  0.29156606360636
 6 -8.12572312551255  3.46206649794979  0.09254959415942
 6 -5.58817459865987  5.82989408070807  1.34870139533953
 6 -8.62545175757576  6.01936700470047  0.20921094299430
 6 -8.14192339013901  7.28346443074307 -0.19969423172317
 7 -9.15513054875487  0.64494097239724 -0.46206791209121
 6 -9.91002266126613  1.85115579817982 -0.61824694889489
 6 -11.17146188908891  1.42945393579358 -1.02961771137114
 6 -11.25569409010901  0.07272114941494 -1.07659692589259
 6 -9.93657354105411 -0.40759924802480 -0.68773807670767
 6 -12.27495573767377  2.39797207810781 -1.21553208410841
 6 -12.39276932263226 -0.68377944014401 -1.48909408660866
 6 -12.31445777777778 -0.93163704890489 -3.10890899629963
 7 -7.18338459055906 -1.42347170877088 -0.22023514221422
 6 -8.28399362166217 -2.30447638713871 -0.45116292219222
 6 -7.81831949944994 -3.66518070097010 -0.44517294629463
 6 -6.51161668366837 -3.58136245174517 -0.19738223032303
 6 -6.12634741294129 -2.18812496699670  0.07419904130413
 6 -8.72287263196320 -4.88876169506951 -0.66738628562856
 6 -5.24153069076908 -4.41674766006601 -0.01751325142514
 8 -5.08999036083608 -5.61578423202320 -0.03692765796580
 6 -4.08423183318332 -3.28260119421942  0.44358525052505
 6 -3.64193855805581 -3.68665475007501  1.82654383408341
 8 -3.91781543614361 -3.21580481328133  2.83944766006601
 8 -2.66791813971397 -4.72022017451745  1.70062815081508
 6 -2.19386202470247 -5.25137560686069  2.91386272327233
 6  2.69926370297030 -0.43668292599260 -1.25652102700270
 6  4.10946426882688 -0.38909275867587 -0.63758628732873
 6  5.14318792619262  0.34038736323632 -1.02051195139514
 6  5.00938835543554  1.25720025632563 -2.19323641474147
 6  6.38739519711971  0.41520032693269 -0.27907459365937
 6  7.63244098299830 -0.25611749364937 -0.95256492519252
 6  8.94140322272227  0.02333259975998 -0.24337693189319
 6  10.19777067006701 -0.44342144044404 -0.89614600900090
 6  10.08454564076408 -1.98944827972797 -1.25881754325433
 6  11.36666778387839 -0.24514540514051  0.00346054475448
 6  12.78928609760976 -0.41893840974097 -0.72217275707571
 6  13.92965865366537 -0.11234799799980  0.25404261726173
 6  15.39129447344735 -0.20328293999400 -0.34528757905791
 6  15.71376547874788 -1.61430421622162 -0.74327160696070
 6  16.36009926392639  0.28369275537554  0.61085026972697
 6  17.82493819811981  0.46071419721972 -0.04904318421842
 6  18.82572797229723  1.25731757855786  0.87308967066707
 6  20.28444612441244  1.33507925252525  0.22935253885389
 6  20.38480870977098  2.02820846884689 -1.08366418781878
 6  21.24137201130113  2.00507487688769  1.20485718731873
 1 -4.03711396989699  3.56742512421242  1.68144266526653
 1 -10.21580533223322  3.77516510041004 -0.37634193679368
 1 -10.40504976677668 -2.55691574627463 -0.75056860436044
 1 -2.56326501720172 -1.10111977567757  2.07619485808581
 1 -2.26058569656966  1.60976946554655  1.03109747624762
 1 -1.96671039433943  0.80312580158016  3.73773398679868
 1 -2.94769955615562  2.33149260586059  3.48276284378438
 1 -3.43077405860586  0.42994736243624  3.61351523602360
 1 -2.02600512741274 -1.56842276267627 -0.45660064606461
 1 -2.06597079927993  0.17761985328533 -0.66394149574957
 1 -0.27357445144514  0.48765668916892  1.20999325122512
 1 -0.25525147884788 -1.40373334873487  1.29742261816182
 1 -4.71731389908991  5.90297547264726  0.62694447664766
 1 -6.15438010831083  6.73264306310631  1.60776546574657
 1 -5.12651588038804  5.48055322672267  2.48836251495149
 1 -9.70316781568157  5.90648358445845  0.35874371887189
 1 -8.75979662006200  8.17173576307631  0.02085267856786
 1 -7.09721475807581  7.33048361756176 -0.84296876747675
 1 -12.02511792459246  2.79918722402240 -2.26543284168417
 1 -13.36210142364236  2.07418305640564 -1.22928645234523
 1 -12.13060002140214  3.38468155355536 -0.60004150215021
 1 -12.46659918801880 -1.79246164436444 -0.98341854975498
 1 -13.50193619721972 -0.41230504350435 -1.27883524052405
 1 -13.29099956615661 -1.38369960916092 -3.28611160886089
 1 -12.32647282128213 -0.03872259815982 -3.77380495549555
 1 -11.45876922452245 -1.51158410241024 -3.39930904640464
 1 -9.04955585148515 -4.53972682098210 -1.84476205760576
 1 -8.14725842684268 -5.85945605380538 -0.45755998409841
 1 -9.78675084088409 -4.87915470247025 -0.06011426762676
 1 -3.45054518651865 -3.42500408490849 -0.44599125212521
 1 -1.42999408940894 -4.67632600990099  3.55963265026503
 1 -3.09180436783678 -5.45931657405741  3.57689491159116
 1 -1.52158358485849 -6.03529770687069  2.73994069696970
 1  2.54562923402340 -1.34722441234123 -1.67736181248125
 1  2.76635833603360  0.42829574797480 -1.94791681148115
 1  4.16789601390139 -1.19808781498150  0.24089646584658
 1  4.02655359165917  1.47170826712671 -2.59981332363236
 1  5.45152845124512  2.24239863006301 -2.00783513811381
 1  5.48321364416442  0.70631096129613 -3.12361366066607
 1  6.56568959225923  1.47684391209121  0.01545904360436
 1  6.47726107410741 -0.14526777567757  0.74758576567657
 1  7.42079582168217 -1.34598567026703 -0.99981411011101
 1  7.92534406540654  0.18200507700770 -1.90413055995600
 1  9.14996109330933  1.03559617611761 -0.11811784928493
 1  9.02218004080408 -0.50516887228723  0.87542216081608
 1  10.01585329682968  0.08328309460946 -1.74205803640364
 1  9.06609310571057 -2.29904694899490 -1.85294025522552
 1  10.92185527022702 -2.31582809540954 -1.80641682768277
 1  10.03879135273527 -2.64950657325733 -0.36029812051205
 1  11.51877663986399  0.88041244874487 -0.02159019561956
 1  11.29269967966797 -0.77449978807881  0.97722519551955
 1  12.89189492519252 -1.39384624602460 -0.95503383828383
 1  12.91086999299930  0.08170764976498 -1.69125748954895
 1  13.71541304450445  0.75419867536754  0.55213187368737
 1  13.86464255455546 -0.50363280058006  1.18159332903290
 1  15.41855424752475  0.36504636503650 -1.29038869836984
 1  15.54666666766677 -2.20645737163716  0.12519492189219
 1  14.90948848064806 -2.06290448404840 -1.37411513191319
 1  16.76511457005701 -1.86543047164716 -1.23229533833383
 1  16.09545475517552  1.41659073177318  0.93487690869087
 1  16.52325402740274 -0.60371676737674  1.16765969766977
 1  18.14672386428643 -0.54751171497150 -0.44758076567657
 1  17.75657573877388  0.95556681518152 -0.90397388128813
 1  18.46734541734173  2.31424332393239  1.07330243114311
 1  18.71376765416542  0.53292690399040  1.66602295389539
 1  20.59012907960796  0.48133456925693  0.01592934333433
 1  20.13434026732673  3.04831381628163 -1.09100937043704
 1  21.38529464336434  2.05564144204420 -1.52889414341434
 1  19.81017185038504  1.54920632293229 -1.92791321462146
 1  21.31754176947695  1.56149545334533  2.17776721832183
 1  22.24194883538354  2.04894342554255  0.93996826302630
 1  20.89039157175718  3.05821949814981  1.25783171437144

