%nproc=4
%Mem=2GB
# td=(NStates=1) CAM-B3LYP/6-31G(d,p) 

TD

0 1
12 -7.16390806010601  0.62854109480948  0.06483453205321
 6 -4.85994487558756 -1.89181129242924  0.41153678857886
 6 -4.75597490379038  2.78254258155816  1.19880333753375
 6 -9.37473206200620  3.05517791719172 -0.32419375237524
 6 -9.63700472807281 -1.70550072507251 -0.85827394239424
 7 -5.06576935853585  0.53775503600360  0.59866738713871
 6 -4.35509311461146 -0.68334895529553  0.64847675047505
 6 -2.87344830603060 -0.42693796589659  1.09965540674067
 6 -3.01246153535354  1.08134926742674  1.56058886528653
 6 -4.39439752645265  1.50813119351935  1.14712097329733
 6 -2.86309410041004  1.26698318561856  3.05034856095610
 6 -1.88200248114811 -0.76154016411641  0.06761608740874
 6 -0.45674392839284 -0.53604183558356  0.57109569246925
 6  0.57902728112811 -0.73451688378838 -0.58722037383738
 8  0.27080763046305 -1.14057546134613 -1.64980426072607
 8  1.83079010401040 -0.30935584238424 -0.14882910301030
 7 -7.09456706520652  2.64949635693569  0.33559871667167
 6 -6.06667379837984  3.33659461336134  0.89984796879688
 6 -6.36906489618962  4.66833746414641  0.88352611711171
 6 -7.71143173857386  4.88161804850485  0.46295320232023
 6 -8.13774432763276  3.46888718001800  0.08268860806081
 6 -5.54591037223722  5.89163025432543  1.28160468566857
 6 -8.64335354775478  5.97342241024102  0.32368239013901
 6 -8.33597279507951  7.23228931323132 -0.04119838213821
 7 -9.12541757745775  0.62327880618062 -0.47178888418842
 6 -9.88632029102910  1.83531421402140 -0.57214233843384
 6 -11.20784552745275  1.44879586998700 -1.10505525512551
 6 -11.23273179387939  0.11259513681368 -1.15544481068107
 6 -10.04785466916692 -0.34374286238624 -0.85642494539454
 6 -12.38066630873087  2.40955323622362 -1.35757628852885
 6 -12.40833087878788 -0.85324638683868 -1.54858003520352
 6 -12.32142847484748 -1.27235112031203 -2.98062616801680
 7 -7.29623587568757 -1.35410477207721 -0.17000011871187
 6 -8.32012723502350 -2.29059499899990 -0.40210801670167
 6 -7.84531219871987 -3.56957114001400 -0.48482691169117
 6 -6.46028155015502 -3.43292760826083 -0.16190868296830
 6 -6.20373515171517 -2.10537669216922  0.00938255965597
 6 -8.67634797949795 -4.83484630353035 -0.75497504450445
 6 -5.27203374107411 -4.31040702600260  0.09267776767677
 8 -5.08789015081508 -5.44458711231123 -0.03193715891589
 6 -4.13860727072707 -3.21087402150215  0.46905779777978
 6 -3.45624998919892 -3.64178026262626  1.70794197389739
 8 -3.58204185878588 -3.07817104990499  2.79629334463446
 8 -2.67973932183218 -4.67792594509451  1.59158724672467
 6 -2.10804344284428 -5.18207867716772  2.75024636163616
 6  2.82130590719072 -0.63905316301630 -1.13063843874387
 6  4.13397672007201 -0.49389323872387 -0.46082861156116
 6  5.22194580198020  0.36286961146115 -0.84913481368137
 6  5.16897431403140  1.20214475077508 -2.10930802190219
 6  6.41347780538054  0.36621542844284  0.02294560836084
 6  7.58748648754875 -0.21247312921292 -0.73385305400540
 6  8.92153123552355 -0.23577331083108  0.03594099989999
 6  10.21619251225123 -0.65076217451745 -0.65121151555156
 6  10.07121430763076 -2.15101443634363 -1.06385804730473
 6  11.48678979607961 -0.32907379797980  0.16327652635264
 6  12.71802897189719 -0.49729624552455 -0.65074561436144
 6  13.87102279007901 -0.09644640784078  0.17107432043204
 6  15.26643198719872 -0.07753036473647 -0.53651670197020
 6  15.55360946314632 -1.51972475827583 -1.17211449124912
 6  16.27061031503150  0.49173355945595  0.40635982068207
 6  17.70997670197020  0.60988911471147 -0.10888916881688
 6  18.74942034153415  1.31772361916192  0.66128849054905
 6  20.23974165396540  1.27729347394739  0.10222982658266
 6  20.30996122502250  2.16085173317332 -1.12881870327033
 6  21.15550342444245  1.89452382178218  1.21918862046205
 1 -3.99900015851585  3.58837721942194  1.64059858085808
 1 -10.06464021572157  3.87672525642564 -0.55360966356636
 1 -10.36232549434943 -2.27145720042004 -1.04556810431043
 1 -2.71131982268227 -0.83089275297530  2.28072531113111
 1 -2.16702634063406  1.67599608820882  0.99587395389539
 1 -1.90434415771577  0.67460294929493  3.64748496189619
 1 -3.19840462666267  2.16749620622062  3.48440300780078
 1 -3.60738171937194  0.77570193789379  3.41031491599160
 1 -2.03785631253125 -1.80052597299730 -0.28725371137114
 1 -2.03841804400440 -0.19621753045304 -0.95386048764876
 1 -0.19714680868087  0.47432535603560  0.97984023592359
 1 -0.27916387008701 -1.16338931433143  1.37874074997500
 1 -4.93619578727873  6.34487966306631  0.50277205940594
 1 -6.16356102640264  6.70870066886689  1.76387107630763
 1 -4.70109333813381  5.67325249664967  2.00480415911591
 1 -9.67607510641064  5.76747968406841  0.60461830633063
 1 -9.12014265466547  7.81578016751675 -0.01093049974997
 1 -7.19872490909091  7.56164673387339 -0.04384885548555
 1 -12.33352876567657  2.79883718901890 -2.40070636903690
 1 -13.39359457295729  1.85589122722272 -1.35006853055306
 1 -12.33993095449545  3.46278936433643 -0.72342384038404
 1 -12.60689321742174 -1.66578897709771 -0.95998620652065
 1 -13.28229423302330 -0.14868868186819 -1.55341269826983
 1 -13.26946741294129 -1.70288152735273 -3.15450844854485
 1 -12.07400757475748 -0.40828955485549 -3.65653322832283
 1 -11.51078442604260 -1.98052099609961 -3.06877599309931
 1 -9.21293218911891 -4.85149799809981 -1.86029361076108
 1 -7.87941164216422 -5.52602271047105 -0.80738496659666
 1 -9.27624979077908 -5.22292907990799  0.07180892469247
 1 -3.34753488548855 -3.22159374387439 -0.33545019801980
 1 -1.61832292229223 -4.45678405570557  3.30548723572357
 1 -2.90600578797880 -5.37559820222022  3.35008223032303
 1 -1.42063348984899 -5.98155233233323  2.39861656455646
 1  2.53412808390839 -1.75080477037704 -1.19395347164716
 1  2.74060576077608 -0.04715179677968 -2.02424444424442
 1  4.26994621892189 -1.06264427062706  0.44266664286429
 1  4.19291022732273  1.35615671197120 -2.39829317161716
 1  5.55304860326033  2.02595698589859 -1.83413776837684
 1  5.66642196499650  0.76416674687469 -3.13688498779878
 1  6.69829285258526  1.37450367806781  0.30384788248825
 1  6.25577892589259 -0.14032728162816  0.98518952605261
 1  7.28528227032703 -1.13886495819582 -1.21755588428843
 1  7.97028855985599  0.35504238073807 -1.57666781368137
 1  9.23424952215221  0.74880749724972  0.39954391689169
 1  8.69536735953595 -0.83414176957696  0.96334095269527
 1  10.20545225672567 -0.17100233393339 -1.56259008960896
 1  9.09847634403440 -2.19328637293729 -1.50671563276328
 1  10.92220530523052 -2.44945145774577 -1.76315250125013
 1  10.14020149374937 -2.65233685628563 -0.07532962366237
 1  11.37569233143314  0.65602000950095  0.55118708210821
 1  11.38593900360036 -0.93941627972797  1.04045151815181
 1  12.68172390809081 -1.57574443584358 -1.24507284218422
 1  12.58104701070107  0.28653813281328 -1.56062442624262
 1  13.53544504770477  0.84258751425143  0.54578123862386
 1  13.86812290259026 -0.62903534083408  1.19559472917292
 1  15.18406079817982  0.63561342174217 -1.41318097759776
 1  15.66149815081508 -2.40849757565757 -0.37536513411341
 1  14.63520105190519 -1.68218641224122 -1.72976069646965
 1  16.51560961956196 -1.55806973557356 -1.70329243804380
 1  15.80375558525852  1.52412148484848  0.79755317631763
 1  16.42950465246525 -0.25303169886989  1.26634956665667
 1  18.22961215311531 -0.43215017881788 -0.17894390199020
 1  17.65707578877888  0.84455571407141 -1.15248873277328
 1  18.66400508330833  2.45099699929993  0.80393549444945
 1  18.73750002740274  0.91783539483948  1.58844519611961
 1  20.57921798849885  0.05678211401140 -0.08018026762676
 1  19.69709654295430  3.26810579547955 -0.96292656215622
 1  21.26167228112811  2.34555043294329 -1.47173842784278
 1  19.83037387058706  1.64010541284128 -1.87212763606361
 1  21.24710472577258  1.10318962276228  2.00017945954595
 1  22.19605424592459  1.88327685888589  0.82077634383438
 1  20.59696222882288  2.83676735293529  1.51570750195019

