%nproc=4
%Mem=2GB
# td=(NStates=1) CAM-B3LYP/6-31G(d,p) 

TD

0 1
12 -7.18346001530153  0.61900014071407  0.15379342794279
 6 -4.96502538363836 -2.06141825312531  0.54083971887189
 6 -4.83383268956896  2.88390271757176  1.20476393359336
 6 -9.41645623442344  3.05692809220922 -0.38851018401840
 6 -9.54167519511951 -1.71626180118012 -0.86485460046005
 7 -5.12405518711871  0.38986024652465  0.74644216461646
 6 -4.37521512681268 -0.76343696409641  0.89947184998500
 6 -2.92994395559556 -0.42443771587159  1.28070351155115
 6 -3.04984527372737  1.13646477897790  1.77306011241124
 6 -4.43526161286129  1.45381576197620  1.24473073427343
 6 -2.80827861886189  1.20387687498750  3.33327685378538
 6 -1.91434571547155 -0.54833884398440  0.02130145594559
 6 -0.49264751875188 -0.48475670707071  0.58311689458946
 6  0.53974335273527 -0.55385881798180 -0.53144479627963
 8  0.18611916161616 -0.81048245204520 -1.72214149444944
 8  1.86703372837284 -0.50809571637164 -0.12573679377938
 7 -7.11505911441144  2.61406281358136  0.33993915071507
 6 -6.11647877887789  3.37066802070207  0.83595157915792
 6 -6.47668565826583  4.75325595599560  0.86982474697470
 6 -7.71358195359536  4.79352923962396  0.34892179917992
 6 -8.18554910811081  3.44148443974397  0.06219655885589
 6 -5.63199898109811  5.87020811211121  1.19971649684969
 6 -8.58921813421342  5.96371143914391  0.22866288818882
 6 -8.16741593939394  7.11663774807481 -0.22306656895690
 7 -9.12002703840384  0.73965044334433 -0.48122982828283
 6 -9.84878653765377  1.80024070667067 -0.53792891709171
 6 -11.17015175807581  1.43743473387339 -1.03507825742574
 6 -11.20519904060406  0.12359623692369 -1.17687695389539
 6 -9.84631451515151 -0.38852734083408 -0.88379768266827
 6 -12.31055929802980  2.46375865676568 -1.29705023592359
 6 -12.33217326302630 -0.73163422562256 -1.78813399059906
 6 -12.30202653465347 -0.95583946914691 -3.19706781218122
 7 -7.20382663476348 -1.32610197179718 -0.16913003170317
 6 -8.33796901920192 -2.19815575507551 -0.46485429132913
 6 -7.85185285278528 -3.58386256915692 -0.44160258925893
 6 -6.56725224722472 -3.62959727522752 -0.06331882398240
 6 -6.20184496269627 -2.19969612411241  0.06096771817182
 6 -8.65053539823982 -4.86587940684068 -0.89751929892989
 6 -5.34768130583058 -4.39341532683268  0.11045954585459
 8 -5.27894925672567 -5.60384303790379 -0.05476944214421
 6 -4.23468687868787 -3.30040297439744  0.48900979297930
 6 -3.54819918411841 -3.70168625322532  1.80593177287729
 8 -3.72250590519052 -3.15385861866187  2.84398811411141
 8 -2.76746809470947 -4.77881603410341  1.62716080408041
 6 -2.17241988048805 -5.32535300460046  2.85121645864586
 6  2.89477325392539 -0.64032329002900 -1.16875225012501
 6  4.08747206960696 -0.39489333873387 -0.37512004070407
 6  5.12735634303430  0.36317964246425 -0.78478837903790
 6  5.10260767736774  1.14854939123912 -2.07249434053405
 6  6.39361581918192  0.37564637153715 -0.00770745694569
 6  7.60806854575458 -0.17926980888089 -0.79090875957596
 6  8.91071015341534 -0.17700743424342 -0.04067666186619
 6  10.21450234323432 -0.55886298459846 -0.90079647404740
 6  10.16673385958596 -1.96581591649165 -1.44166582808281
 6  11.42395351245125 -0.29940083068307 -0.03594339563956
 6  12.71494866386639 -0.45991250715071 -0.71747228702870
 6  13.93159884768477 -0.10163692689269  0.14031124412441
 6  15.32822816681668 -0.22585519721972 -0.49336238653865
 6  15.66853095529553 -1.70623340914091 -0.75051233103310
 6  16.39397265126512  0.44363874997500  0.33396258095810
 6  17.88969467376738  0.55387351315132 -0.19242752265227
 6  18.89481488098810  1.38480032683268  0.68487084878488
 6  20.21920960076008  1.42759850445045  0.16137574117412
 6  20.39373960286028  2.16632228022802 -1.13881970337034
 6  21.25315318941894  1.94112848224822  1.10187688928893
 1 -4.17707796629663  3.51356973867387  1.47675219621962
 1 -10.16605035673567  3.99182676657666 -0.40019432203220
 1 -10.33186244804480 -2.31676173087309 -1.29233278077808
 1 -2.49784847554755 -1.15244490819082  2.11656889548955
 1 -2.20060969896990  1.72559104770477  1.24014838133813
 1 -1.72271599489949  0.66237172617262  3.72832304570457
 1 -2.95541032723272  2.35193465006501  3.62018658615862
 1 -3.59488046924692  0.61509587728773  3.67510139463946
 1 -1.97886041294129 -1.52250817121712 -0.73331831783178
 1 -1.93915811801180  0.23515560686069 -0.92079718131813
 1 -0.35564265826583  0.53697162066207  1.11631388328833
 1  0.03016706300630 -1.22263523892389  1.32054493039304
 1 -4.91473364106411  6.16116129122912  0.40718250045005
 1 -5.96301097139714  6.93396319511951  1.58383307250725
 1 -5.02923615241524  5.64624979637964  2.15850952965297
 1 -9.80221772067207  5.90074301040104  0.19038688318832
 1 -8.72219285968597  8.14924351385138 -0.29145855255526
 1 -7.19573461006101  7.28722929212921 -0.42061653225323
 1 -12.11245665846585  3.09261656695670 -2.06161245964596
 1 -13.25954116761676  1.85285092319232 -1.69207273097310
 1 -12.77450441184119  3.17290037543754 -0.43691518951895
 1 -12.42786531463146 -1.72010440864086 -1.07967817571757
 1 -13.27933393699370 -0.31380519351935 -1.70692804980498
 1 -13.12926339253925 -1.68858009720972 -3.78087108480848
 1 -12.17110728472847 -0.02142086798680 -3.59993756875688
 1 -11.42643599119912 -1.55004794879488 -3.58340745624562
 1 -8.99536043194319 -4.84545739403940 -1.95932351375138
 1 -8.14218791979198 -5.87813792199220 -1.06339056715672
 1 -9.62388455425542 -4.81718850585059 -0.20857911411141
 1 -3.47358749074908 -3.22848443294329 -0.32126877987799
 1 -1.72851394139414 -4.46357473477348  3.44154084108411
 1 -2.92630781818182 -5.57142778517852  3.42903012511251
 1 -1.40168159465947 -6.15449962706271  2.67182388528853
 1  2.90843551465147 -1.76405609550955 -1.56200027632763
 1  2.67554925512551  0.06521944034403 -1.82554457425743
 1  4.10425965026503 -0.92650065626563  0.45382775897590
 1  4.09987092339234  1.59300039633963 -2.41336467876788
 1  5.57882118051805  2.17085147534753 -1.81910626522652
 1  5.56878220102010  0.65890622082208 -2.96396769606961
 1  6.78089111241124  1.44606083378338  0.15324282198220
 1  6.06848019601960 -0.05110835973597  1.08815982308231
 1  7.40261400350035 -1.20462153385339 -0.97984211291129
 1  7.59531106210621  0.12703958045805 -1.81520166706671
 1  9.25581167836784  0.66521913841384  0.61720568306831
 1  8.82616043884388 -0.99873822922292  0.66017063566357
 1  10.09441115261526  0.24447921422142 -1.69549337993799
 1  9.38074457085709 -2.10368741304130 -2.30994595579558
 1  11.22110519521952 -2.02408892149215 -1.77068325432543
 1  9.78846632023202 -2.76132775537554 -0.69211130183018
 1  11.34677944014401  0.66228063556356  0.35565752915292
 1  11.22167257695770 -1.07221956005601  0.89637711071107
 1  12.68594433013301 -1.69591645304530 -0.91361969686969
 1  12.97607651365137 -0.01283180418042 -1.78733709750975
 1  13.78894039723972  0.87894114961496  0.58542520302030
 1  13.97071316161616 -0.63604604190419  1.16385155485549
 1  15.41770416251625  0.43989384978498 -1.40445010451045
 1  15.97932993399340 -2.03815054095410  0.40285268766877
 1  14.98525605740574 -2.41184937853785 -1.04027174757476
 1  16.55083314191419 -1.72002593119312 -1.11892400120012
 1  16.15089029872987  1.46951602430243  0.58938235923592
 1  16.29650135213522 -0.10226662236224  1.39076200790079
 1  18.39816900880088 -0.31131809560956 -0.34799080668067
 1  17.76151623282328  1.08080933943394 -1.20213369726973
 1  18.46070475327533  2.46680858045805  0.89965506640664
 1  18.73605988338834  0.88842245354535  1.73261961356136
 1  20.46011607830783  0.45010144594460 -0.23445569516952
 1  20.10981781508151  3.27693667856786 -1.22177244674467
 1  21.44351046494650  2.22650852875288 -1.40947220122012
 1  20.02433326652665  1.79069047134713 -1.95154557785779
 1  21.19446946224623  1.25583488728873  2.11987142874287
 1  22.35175981648165  1.92081061226123  0.79293355955596
 1  20.94094662726273  2.93945762196220  1.32372830403040

