%nproc=4
%Mem=2GB
# td=(NStates=1) CAM-B3LYP/6-31G(d,p) 

TD

0 1
12 -7.15581725102510  0.61878011871187  0.16568461706171
 6 -4.82973185428543 -1.97728984028403  0.67964359925993
 6 -4.90783008930893  2.82704703200320  1.22138559575958
 6 -9.49161375017502  3.04775717511751 -0.31123245624562
 6 -9.53987501510151 -1.70804097909791 -0.85367348234823
 7 -5.08085086668667  0.43583484398440  0.64402192259226
 6 -4.33910151545154 -0.77079770017002  0.90476237903790
 6 -2.96903786498650 -0.37780305240524  1.15781122232223
 6 -3.07327761696170  1.10844197669767  1.63099590599060
 6 -4.49107719441944  1.45904628502850  1.19764602580258
 6 -2.91139893089309  1.31449793709371  3.08971249734974
 6 -1.89587386828683 -0.66853086318632  0.03436276207621
 6 -0.50127838183818 -0.48559679107911  0.56817540044004
 6  0.50555993439344 -0.65710914301430 -0.67350900270027
 8  0.14613516321632 -0.96600800460046 -1.79703898419842
 8  1.76416344134413 -0.44860976777678 -0.26491071117112
 7 -7.15836344484448  2.62412381968197  0.53525868266827
 6 -6.11810894189419  3.33144409830983  0.87465544954495
 6 -6.42677066676668  4.77933856425643  0.84423218771877
 6 -7.73605420082008  4.86162604930493  0.49576648364836
 6 -8.15076562976298  3.45401569286929  0.18033837303730
 6 -5.54059984118412  5.86546763806381  1.31683820902090
 6 -8.62970218261826  6.03838890689069  0.42063208510851
 6 -8.34566376417642  7.29942602690269  0.05844158185819
 7 -9.10298533423342  0.69134561286129 -0.61558326362636
 6 -9.92123378237824  1.81426210881088 -0.54476960116012
 6 -11.26011075397540  1.42571356175618 -1.14687943754375
 6 -11.27755627632763  0.08272214951495 -1.16471573777378
 6 -9.85832571627163 -0.40333882198220 -0.90930023292329
 6 -12.22253049514952  2.48664094499450 -1.37684821572157
 6 -12.37405745144514 -0.72708377057706 -1.81056623382338
 6 -12.19072540454045 -1.02256614181418 -3.31934003940394
 7 -7.20597684978498 -1.39713907550755 -0.05802892159216
 6 -8.25947116941694 -2.25381132063206 -0.56538434433443
 6 -7.82860052755276 -3.63213739663966 -0.57198562756276
 6 -6.49514503650365 -3.54633894939494 -0.02616510861086
 6 -6.17045182338234 -2.17607376187619  0.25354697609761
 6 -8.60278062276228 -4.84975779467947 -0.87787733473347
 6 -5.33927046474648 -4.39766575187519  0.33000150005000
 8 -5.15363672547255 -5.58620127372737  0.17804383918392
 6 -4.22989639963996 -3.35019795389539  0.72326321832183
 6 -3.60842520672067 -3.65027111171117  1.98582976267627
 8 -3.75915957055706 -3.14011724452445  3.02908662396240
 8 -2.79334068196820 -4.74754290679068  1.77136522452245
 6 -2.20060269876988 -5.30708117741774  2.92253359035904
 6  2.78684246084608 -0.55915517321732 -1.35981135603560
 6  4.16106942934293 -0.28114196359636 -0.70678320702070
 6  5.15615922332233  0.38600192469247 -1.18754865506551
 6  5.22275969256926  1.09087362366237 -2.48962605370537
 6  6.41303776137614  0.34552335923592 -0.28790547674767
 6  7.68385612451245 -0.22072395429543 -1.11003067176718
 6  8.94673375577558 -0.15540527402740 -0.32788538273827
 6  10.34865575857586 -0.51097819611961 -0.97312370677068
 6  10.21420860706071 -1.99172850775078 -1.48476013751375
 6  11.41162227932793 -0.24840573117312 -0.14685448674867
 6  12.75847301630163 -0.49492600850085 -0.77246778657866
 6  13.93012870067007 -0.18828559175918  0.26532374537454
 6  15.33663900790079 -0.19344195589559 -0.43459650995100
 6  15.79279338153815 -1.58539132493249 -0.90057733753375
 6  16.36041929592959  0.52055644174417  0.56336552125213
 6  17.76737244154415  0.54998312411241 -0.17780606050605
 6  18.78266366586659  1.19137098389839  0.89721208290829
 6  20.27686536633663  1.45011075567557  0.38240784438444
 6  20.34024425332533  2.23743939193919 -1.03890971237124
 6  21.28942681678168  1.86669103850385  1.48328503010301
 1 -4.00682094059406  3.61521990369037  1.52032655365537
 1 -10.22563631533153  3.75984356825683 -0.52894719731973
 1 -10.21553081488149 -2.50731078577858 -0.97264081158116
 1 -2.67914660536054 -0.97776744044404  1.97879511811181
 1 -2.44080371837184  1.92417090569057  1.16914128062806
 1 -1.96973069636964  1.03632912191219  3.43074328772877
 1 -3.15671045724572  2.26315577217722  3.66604117161716
 1 -3.74613559475948  0.53095746344634  3.63349723422342
 1 -2.19725225212521 -1.69066498689869 -0.39801478747875
 1 -2.14362856505651 -0.12218012671267 -0.65879098069807
 1 -0.13061015501550  0.49037696119612  1.20274252615262
 1 -0.34536048974897 -1.29112208760876  1.22154503040304
 1 -4.69739190689069  6.02132730783078  0.49599138133813
 1 -6.20377504780478  6.79540933973397  1.40755544474447
 1 -4.90306353515352  5.61684685608561  2.23050672937294
 1 -9.76610410931093  5.93838677477748  0.76845468996900
 1 -9.28722936333633  8.03294188368837  0.11022161546155
 1 -7.40701573817382  7.77084765396540 -0.42731720232023
 1 -11.92540795359536  2.95458276357636 -2.31335763416342
 1 -13.20046526002600  2.19551518961896 -1.44104762846285
 1 -12.31995895729573  3.43936702210221 -0.70981247924792
 1 -12.57797032513251 -1.97251965016502 -1.42647285518552
 1 -13.22116812041204 -0.26106991999200 -1.48092544954495
 1 -12.97032749894989 -1.60770200940094 -3.66232923062306
 1 -12.23954412841284 -0.03083180908091 -3.75552312731273
 1 -11.24746809440944 -1.57152009600960 -3.62416153165317
 1 -8.70000089598960 -4.98642149044904 -1.87902548394839
 1 -7.83262696369637 -5.73004311251125 -0.63115734383438
 1 -9.59884205000500 -4.91566835383538 -0.44174243044304
 1 -3.57521765376538 -3.49075065956596 -0.16821347434743
 1 -1.56608769876988 -4.51490986828683  3.20734742174217
 1 -3.08009319671967 -5.53551419381938  3.73371059315932
 1 -1.71586301280128 -6.29725390249025  2.85721242414241
 1  2.69376404750475 -1.54367405730573 -1.84371844814481
 1  2.46885858605861  0.22837575597560 -2.06841886168617
 1  4.23105232953295 -0.90499850605061  0.32017439363936
 1  4.23816475277528  1.10636173247325 -2.68084142644264
 1  5.73080637903790  2.09340373057306 -2.42081643624362
 1  5.77678300110011  0.51716204640464 -3.13937523682368
 1  6.43689671297130  1.35533176087609  0.03368086578658
 1  6.20822417041704 -0.31297454635464  0.43843485058506
 1  7.20547428952895 -1.20308137983798 -1.49222335103510
 1  7.87516904790479  0.47727460396040 -2.04177432433243
 1  9.01396749394939  0.83386600310031  0.30325428792879
 1  8.70514833763376 -0.93179153455346  0.45335995459546
 1  10.39090080158016  0.11532629892989 -1.78038186878688
 1  9.36524302070207 -2.02256930123012 -2.05946090729073
 1  11.08642172687269 -2.08489500210021 -2.08798498449845
 1  10.19804727832783 -2.77763938653865 -0.70781287198720
 1  11.42019678187819  0.68855326282628  0.10535249864987
 1  11.47123753345335 -0.83176551465147  0.70805827882788
 1  12.81295703140314 -1.63842070347035 -0.95459379427943
 1  12.96722562856286  0.11942142114211 -1.74989335313531
 1  13.65789729292929  0.69014226972697  0.59873653415342
 1  13.70874696499650 -1.07339977727773  1.02568773847385
 1  15.11659405150515  0.33412327272727 -1.38979863936394
 1  15.91667366836684 -2.55557228312831 -0.12925052265227
 1  14.98770630243024 -2.09016721032103 -1.48354607500750
 1  16.77581564016402 -1.57391131973197 -1.30316242504250
 1  16.05897110681068  1.54270334303430  0.73050647164716
 1  16.29238094009401 -0.16569296499650  1.57139007070707
 1  18.29579877177718 -0.66272323612361 -0.22485849344934
 1  17.89968004920492  0.96259751825183 -0.98257174107411
 1  18.45272395519552  2.41247314691469  1.16970207110711
 1  18.73817009440944  0.63531714301430  1.81014736633663
 1  20.54657472417242  0.40967740354035  0.07170492089209
 1  20.27471430473047  3.37767675257526 -0.83351362086209
 1  21.34637075097510  2.04009988788879 -1.12547380138014
 1  20.06518735193519  1.63252465476548 -1.96466688998900
 1  21.45803581888189  1.58130743454345  2.46852629422942
 1  22.19779441994200  1.87187571877188  1.07662192839284
 1  20.85367790039004  2.88309198539854  1.84853078427843

