%nproc=4
%Mem=2GB
# td=(NStates=1) CAM-B3LYP/6-31G(d,p) 

TD

0 1
12 -7.11721339063906  0.59481772247225 -0.02500445184518
 6 -4.75807468856886 -1.91541365266527  0.51672730763076
 6 -4.85211451775178  2.89409373667367  1.14354781198120
 6 -9.44825941474147  3.03459585898590 -0.40411174417442
 6 -9.55633666126613 -1.78209838483848 -0.74641275627563
 7 -5.09903268486849  0.50617187768777  0.60891841224122
 6 -4.21176878217822 -0.63020364076408  0.78846074887489
 6 -2.88378934013401 -0.31098637073707  1.30643608480848
 6 -3.02574286348635  1.16310744324432  1.69562236863686
 6 -4.34954304100410  1.53977435783578  1.06838309950995
 6 -2.96920471147115  1.32604909220922  3.20220374647465
 6 -1.95954023492349 -0.52439644974497  0.05454478027803
 6 -0.46630488448845 -0.26219445084508  0.48315689858986
 6  0.48198757715772 -0.61276470857086 -0.73204485628563
 8  0.23460401010101 -0.99732113591359 -1.82804208450845
 8  1.85853287828783 -0.54045895269527 -0.28067228732873
 7 -7.13565117361736  2.57240864816482  0.30970612741274
 6 -6.12405953695369  3.30838179207921  0.86999498349835
 6 -6.47137512721272  4.73747437783778  0.87047481198120
 6 -7.75658625402540  4.78665855255526  0.47452435943594
 6 -8.20224077727773  3.41778206950695  0.12942328152815
 6 -5.51061684288429  5.78888998029803  1.40063658885889
 6 -8.61055026742674  5.94297936593659  0.36340636253625
 6 -8.16889608740874  7.22917900220022  0.23924966266627
 7 -9.13784882058206  0.68074455275528 -0.56232793809381
 6 -9.89859151815181  1.75956663926393 -0.66453157735774
 6 -11.26876161906191  1.42640363076308 -1.11238598819882
 6 -11.35549407010701  0.08205208250825 -1.10442970917092
 6 -9.96080596429643 -0.47370585868587 -0.76828613151315
 6 -12.32829107120712  2.33355563646365 -1.47898842974297
 6 -12.49032907860786 -0.80682174437444 -1.65326050325032
 6 -12.39091542354235 -1.14940882608261 -3.12617072247225
 7 -7.23497975007501 -1.40361972357236 -0.07127024572457
 6 -8.17765298759876 -2.28081402090209 -0.38272607850785
 6 -7.78911657915792 -3.50550473337334 -0.54075250425042
 6 -6.38210373237324 -3.47104141964196 -0.18150064216422
 6 -6.09361413961396 -2.13938009250925  0.04625624702470
 6 -8.57654799949995 -4.73337615651565 -0.77564711171117
 6 -5.29479601730173 -4.33571955725573  0.11374987488749
 8 -5.16637799959996 -5.57784043764376  0.14760079487949
 6 -4.14656806680668 -3.26561949604960  0.57334822682268
 6 -3.59765412961296 -3.64019010361036  1.87001818151815
 8 -3.76252990759076 -3.10668390119012  2.94005772107211
 8 -2.78773012091209 -4.77923607610761  1.68884697269727
 6 -2.13338597709771 -5.19345981528153  2.85815715271527
 6  2.84707848444844 -0.77426668436844 -1.24263963886389
 6  4.12500582298230 -0.55173902330233 -0.63985651435144
 6  5.11637524492449  0.27118044254425 -0.88390829102910
 6  4.96830424702470  1.13929846614661 -2.15132222332233
 6  6.38885534313431  0.24876368326833 -0.22732941914191
 6  7.60232797169717 -0.05031691359136 -1.04322399109911
 6  8.94395347774777 -0.10815054855486 -0.10383297749775
 6  10.23955484848485 -0.48548564686469 -0.91845824022402
 6  10.16901408760876 -2.00002933783378 -1.40194185568557
 6  11.44583570067007 -0.19586047664766  0.00594079277928
 6  12.74274144314431 -0.43794030993099 -0.71118165796580
 6  13.98708439623962 -0.02070883408341  0.22484969796980
 6  15.25350069406941 -0.10921353305331 -0.39901295159516
 6  15.75170927312731 -1.55508829462946 -0.84944222402240
 6  16.35997925192519  0.60699508560856  0.39692887758776
 6  17.78321402570257  0.55365349114911 -0.17481576147615
 6  18.74305970547055  1.24224607140714  0.74469683138314
 6  20.34916259605961  1.15992173677368  0.22679228282828
 6  20.49944017291729  2.13491913991399 -0.91759758115812
 6  21.18056593069307  1.69479384878488  1.34788148974897
 1 -4.23247350585059  3.65595397709771  1.45609013001300
 1 -10.19571332303230  3.91345892979298 -0.40082438503850
 1 -10.30070933273327 -2.49533958865887 -0.93899744724472
 1 -2.46155484618462 -0.75443510721072  2.19420665926593
 1 -2.31831146914691  1.74566305490549  1.43293766026603
 1 -1.83794751805181  1.28888437743774  3.53449366276628
 1 -3.13228801500150  2.28978843544354  3.56824139163916
 1 -3.75079606080608  0.76982134983498  3.59703358785879
 1 -2.13732625952595 -1.45884180458046 -0.42147713371337
 1 -2.25108931113111  0.09917200850085 -0.85062016361636
 1 -0.40334742874287  0.75044296779678  0.71109336123612
 1 -0.16036198989899 -0.96795977137714  1.30899377527753
 1 -4.90475264296430  6.37863303840384  0.68981076327633
 1 -6.08337300760076  6.44292409120912  2.09715440464046
 1 -4.79170239903990  5.23745891729173  1.99182286098610
 1 -9.73271076997700  5.76277921402140  0.16716456095610
 1 -8.68663930433043  8.17718630813081 -0.10767017371737
 1 -7.22292732933293  7.51329189838984  0.07384291369137
 1 -12.02887830063006  2.57149445474547 -2.53002930133013
 1 -13.24811002450245  1.92678831693169 -1.47180070377038
 1 -12.43804076547655  3.29714279967997 -0.83277477547755
 1 -12.48764129222922 -1.57501990019002 -0.93743395129513
 1 -13.48276428002800 -0.18219203220322 -1.70024738173817
 1 -13.28047851405140 -1.73514475367537 -3.24065706340634
 1 -12.39330950495050 -0.26932565846585 -3.69531710671067
 1 -11.34228757635764 -1.51049399339934 -3.27166628212821
 1 -9.32204310021002 -4.62701554985499 -1.55214279567957
 1 -7.82985668666867 -5.65709581778178 -0.72680690879088
 1 -9.26610877667767 -4.93179996699670  0.19986172997300
 1 -3.39395952795280 -3.59097068156816 -0.10399705270527
 1 -1.70429151915191 -4.44490286758676  3.49275596259626
 1 -2.78179336673667 -5.73666430883088  3.52233945604560
 1 -1.42671409790979 -6.14075825292529  2.73364006690669
 1  2.48223289438944 -1.64115380528053 -1.78615269156916
 1  2.49808150835084 -0.31745882748275 -2.25987800760076
 1  4.32168139243924 -1.30883889008901  0.23694607080708
 1  3.86877781408141  1.10383147944794 -2.40592393469347
 1  5.35091839023902  2.09308369856986 -2.04788914351435
 1  5.62587791059106  0.69284961516152 -2.73644494379438
 1  6.61175419871987  1.19983621132113  0.35480297799780
 1  6.26338968696870 -0.26180942984298  0.66713772087209
 1  7.40350409250925 -0.91741281298130 -1.40540466916692
 1  7.63121465246525  0.50338721522152 -2.03007315421542
 1  9.00760685788579  0.78094071057106  0.30972493499350
 1  8.75778360116012 -0.84759311471147  0.66674129272927
 1  10.23196490799080  0.13139790609061 -1.89115294589459
 1  9.38337483388339 -2.16404344864486 -2.23411837303730
 1  11.16189927462746 -2.25279179177918 -2.00524671067107
 1  9.83395086868687 -2.62433405600560 -0.46944903560356
 1  11.43656841904190  0.81710611811181  0.39895185858586
 1  11.38408881858186 -1.00945328342834  0.86722419541954
 1  12.79784552025203 -1.41893875527553 -1.16842517741774
 1  12.57240614661466  0.41578105710571 -1.53266162996300
 1  13.65147665086509  1.00263351885189  0.28615527602760
 1  13.88027411771177 -0.75846828412841  1.08374354405441
 1  15.15450784288429  0.67770763116312 -1.26956661616162
 1  15.80881288228823 -2.03402012791279  0.12480488288829
 1  14.91654918671867 -2.22536072967297 -1.27387510791079
 1  16.54289234783479 -1.66372030063006 -1.49169127792779
 1  16.05133034273427  1.56049512221222  0.48380180118012
 1  16.25007670967097  0.28619222352235  1.49806273797380
 1  18.26748594049405 -0.59596656045605 -0.28751475907591
 1  17.96776685788579  0.88890014851485 -1.33843732763276
 1  18.61818050085008  2.42358425802580  0.82993809470947
 1  18.77103338073807  0.64877848914891  1.64090044164416
 1  20.48766883358336  0.16719315511551  0.12437018741874
 1  20.30386722002200  3.06558554345435 -0.74349461896190
 1  21.48270438433843  2.13383926182618 -1.31205245924592
 1  19.79118995219522  1.76797820012001 -1.80373079637964
 1  20.93801381668167  1.06827613141314  2.14350379197920
 1  22.29003364386439  1.84565309650965  0.98588285448545
 1  20.97397993059306  2.64753843004300  1.67800373157316

