%nproc=4
%Mem=2GB
# td=(NStates=1) CAM-B3LYP/6-31G(d,p) 

TD

0 1
12 -7.13277494679468  0.54851309200920  0.15149319791979
 6 -4.81744062516252 -1.86806891819182  0.46718235313531
 6 -4.83748305460546  2.80716504380438  1.26563002020202
 6 -9.44247883668367  2.98647104650465 -0.34119545254525
 6 -9.50417144474447 -1.75003517851785 -0.84546266126613
 7 -5.03771655325533  0.41153241374137  0.75626314671467
 6 -4.33592119741974 -0.72556317671767  0.74097600040004
 6 -2.84515547674767 -0.34147942004200  1.16181162236224
 6 -2.99267955715572  1.16575770827083  1.64723753015302
 6 -4.38010609730973  1.50495087548755  1.23645990719072
 6 -2.78721651265127  1.34565105240524  3.18869239533953
 6 -1.87484176507651 -0.46942095219522 -0.05823649784978
 6 -0.37769602360236 -0.46661489288929  0.47677626052605
 6  0.52823220162016 -0.64647807990799 -0.74080573237324
 8  0.24545509520952 -1.04534593839384 -1.86410569086909
 8  1.80682770777078 -0.57410231703170 -0.33316753685369
 7 -7.14447205570557  2.61272267956796  0.34069922672267
 6 -6.00316744774477  3.28928988288829  0.86843482748275
 6 -6.54149213891389  4.72847347774777  0.95234299879988
 6 -7.79850044544454  4.75539542624262  0.53770067706771
 6 -8.19755030823082  3.48611890319032  0.07845818501850
 6 -5.55517129832983  5.85742683398340  1.27653417861786
 6 -8.72066127852785  5.93227829582958  0.45252527442744
 6 -8.44748394619462  7.21856794109411  0.11054679237924
 7 -9.09175421112111  0.66931340964096 -0.44264596989699
 6 -9.87007866686669  1.77373805640564 -0.61738686288629
 6 -11.20439518241824  1.44126511691169 -1.13569831943194
 6 -11.29619814051405  0.07882175947595 -1.18862812901290
 6 -9.93956384008401 -0.40236872497250 -0.81377067996800
 6 -12.48696693879388  2.39561184208421 -1.30902143304330
 6 -12.39618966466647 -0.82843390559056 -1.71533671087109
 6 -12.13360969296930 -1.19186307150715 -3.12324042944294
 7 -7.23268952105211 -1.33408276987699 -0.05614873357336
 6 -8.20771599389939 -2.21219715921592 -0.52632043794379
 6 -7.79312698019802 -3.51792597549755 -0.46373480248025
 6 -6.43071859385939 -3.44077839333933 -0.07314980708071
 6 -6.09037381558156 -2.13903005750575  0.13364498589859
 6 -8.62722306700670 -4.69895271417142 -0.79934948194819
 6 -5.27601413911391 -4.27284326962696  0.18909740964096
 8 -5.10093145494549 -5.48819147274727  0.11345738053805
 6 -4.15329873987399 -3.26909984408441  0.60354124612461
 6 -3.45821018521852 -3.62814889948995  1.83976515621562
 8 -3.59700335493549 -2.98345157795780  2.94399811511151
 8 -2.73659500740074 -4.72679083158316  1.66968505650565
 6 -2.17796043454345 -5.26297676697670  2.87775911291129
 6  2.86805058165817 -0.73915317301730 -1.34456983188319
 6  4.12867619001900 -0.41999584898490 -0.63163569226923
 6  5.09365297269727  0.37261058555856 -1.11068096829683
 6  5.12565998259826  1.14740927722772 -2.42460955205521
 6  6.37047350495049  0.37453626052605 -0.30538722492249
 6  7.71354909380938 -0.08621050295029 -1.08399806850685
 6  8.90204928732873 -0.06187592109211 -0.15048764296430
 6  10.18327922092209 -0.60041714001400 -0.84083047744774
 6  10.03303048924893 -2.02591192609261 -1.27971963346335
 6  11.42897401450145 -0.16298718931893 -0.05086488778878
 6  12.72263943294329 -0.58802531843184 -0.64338487828783
 6  13.92382807060706 -0.06406316951695  0.16098331133113
 6  15.28114345834583 -0.30400301200120 -0.41655470577058
 6  15.69073317551755 -1.71318410421042 -0.73655093489349
 6  16.41499475347534  0.41605599169917  0.36364554925493
 6  17.86436214051405  0.61998012381238 -0.15654393429343
 6  18.72427782728273  1.16288813561356  0.74714707640764
 6  20.16482416221622  1.26465220982098  0.30247985158516
 6  20.25264549344934  2.15120076807681 -0.87977379877988
 6  20.95825369946995  1.85243961336134  1.42378908050805
 1 -4.05154541304130  3.53144152585259  1.75487000800080
 1 -10.08955270697070  3.95289287318732 -0.63390769336934
 1 -10.17828709050905 -2.59474952965296 -1.32208575607561
 1 -2.39997868856886 -0.96870653435344  1.95963320192019
 1 -2.43363300130013  1.87045553415342  1.13944831133113
 1 -1.67205092839284  1.40306579557956  3.49589980338034
 1 -3.04429921612161  2.28538799539954  3.70646521402140
 1 -3.44375535673567  0.54250861856186  3.62021590609061
 1 -2.03953648054805 -1.47263318371837 -0.65001998799880
 1 -2.16093029522952  0.35033712501250 -0.81724682628263
 1 -0.20739783378338  0.71845976947695  0.74404665656566
 1 -0.03008896259626 -1.05197817321732  1.23593646954695
 1 -4.87284945264526  6.21090626572657  0.55827760996100
 1 -5.99832450275028  7.06879667846785  1.47866255545555
 1 -4.88527175597560  5.59008417981798  2.20820449914991
 1 -9.76557405630563  5.70230316641664  0.89294713921392
 1 -9.31444208460846  7.98208679817982 -0.02478188488849
 1 -7.34745978257826  7.76206677587759 -0.31291576217622
 1 -12.41422683548355  3.35382268756876 -2.17813411181118
 1 -13.53201841534153  1.87437307540754 -1.47964148784878
 1 -12.55126208760876  2.97941102650265 -0.46475797379738
 1 -12.52721524962496 -1.69714211241124 -0.92486269416942
 1 -13.23291929552955 -0.31561537453745 -1.59710706770677
 1 -12.90211067726773 -1.62927416661666 -3.56928992669267
 1 -11.94684485848585 -0.23539226512651 -3.68449602460246
 1 -11.24333768136814 -2.02384532853285 -3.31119023452345
 1 -9.00670156605661 -4.56096894519452 -1.88262584398440
 1 -7.92756645764576 -5.55112522072207 -0.83080730883088
 1 -9.49007117291729 -5.02749953695369 -0.01527978417842
 1 -3.59856998899890 -3.38171975647565 -0.24896154915491
 1 -1.64115520552055 -4.45948432573257  3.43420010701070
 1 -2.94751993939394 -5.69015965836584  3.60581780388039
 1 -1.58344977147715 -6.22135631273127  2.71571827472747
 1  2.61163583468347 -1.80906059595960 -1.79795387168717
 1  2.75164686488649  0.07669058745875 -2.09105112491249
 1  4.31459068336834 -0.77875588178818  0.43095547174717
 1  4.08568950525052  1.25269636593659 -2.85215855815582
 1  5.08233153155315  2.01896628682868 -2.20294464906491
 1  6.00163548634863  0.71264159435944 -3.10261156045605
 1  6.61720474377438  1.50122635033503 -0.08525102740274
 1  6.20435378337834 -0.06469971887189  0.72567357445745
 1  7.44417815991599 -1.09592066376638 -1.34905903460346
 1  8.15939747074708  0.69713659015902 -1.91811195809581
 1  9.27151324852485  0.81773438993899  0.32215617811781
 1  8.63857167996800 -0.78748710411041  0.73149776837684
 1  10.11305301680168  0.06736150245025 -1.71690552115212
 1  9.02237873427343 -2.33127017131713 -1.67269223042304
 1  10.78557164186419 -2.13479999259926 -2.13668985498550
 1  10.10890836443644 -2.70957257985799 -0.37328941964196
 1  11.28008277047705  0.88469287678768  0.22150411381138
 1  11.60501091079108 -0.77385972407241  0.84846231923192
 1  12.73895963166317 -1.55233209460946 -0.88890722562256
 1  12.62499140514051 -0.09809033003300 -1.64320268406841
 1  13.81032253545355  0.93779703520352  0.41284794529453
 1  13.98357444774478 -0.41182361966197  1.16269143884388
 1  15.22476486858686  0.24056391679168 -1.36815647514751
 1  15.95522752375238 -2.29586631253125  0.19387178957896
 1  15.08869640144015 -2.44161235483548 -1.32187990839084
 1  16.67689574817482 -1.76919084768477 -1.22775488428843
 1  15.79087429712971  1.48888796149615  0.68057147814782
 1  16.47678938093809  0.03483708800880  1.43171610331033
 1  18.17344653655366 -0.46605356915692 -0.59948595619562
 1  17.69935001620162  1.24833609210921 -1.07228071197120
 1  18.45587427022702  2.22952485208521  1.17895299619962
 1  18.57234351175117  0.76405001630163  1.69237558915892
 1  20.46761682838284  0.29379581538154 -0.03586583618362
 1  19.96515334863486  3.15269425432543 -0.75084535403540
 1  21.30504661856186  2.35634151205121 -1.11748300230023
 1  19.74271510471047  1.64951635393539 -1.85418584188419
 1  20.62433244854486  1.48468777257726  2.42044148574857
 1  22.08403304380438  1.85739427062706  1.28427269346935
 1  20.57589012161216  2.94013768996900  1.46844277547755

