%nproc=4
%Mem=2GB
# td=(NStates=1) CAM-B3LYP/6-31G(d,p) 

TD

0 1
12 -7.09678134743474  0.53703194389439  0.06968501710171
 6 -4.85195407650765 -1.91722383368337  0.49695533043304
 6 -4.76403570987099  2.82815714301430  0.95751920912091
 6 -9.44895948474847  3.08472087148715 -0.29642097509751
 6 -9.53471449904990 -1.74770494549455 -0.77447556255626
 7 -5.07750053165317  0.41158241874187  0.69793731413141
 6 -4.28463606890689 -0.75246586698670  0.91000290309031
 6 -2.90907186838684 -0.44226949904990  1.31879732093209
 6 -2.97677796699670  1.07686881938194  1.69726253265327
 6 -4.38987707440744  1.48624900530053  1.11279754095410
 6 -2.96995478647865  1.22230871817182  3.16950047614761
 6 -1.95943022392239 -0.60257426752675  0.12420174597460
 6 -0.50259851385139 -0.40230846224622  0.41807038993899
 6  0.47487686608661 -0.64027745984598 -0.81341299309931
 8  0.09382993269327 -1.04833623742374 -1.85302458275828
 8  1.77449447444744 -0.42054696149615 -0.36337055715572
 7 -7.11909951845185  2.62173358065807  0.51266642344234
 6 -6.00049718071807  3.31560251415142  0.75361334533453
 6 -6.44586257595760  4.75056568696870  0.83048081258126
 6 -7.74324491989199  4.83827371407141  0.43364027102710
 6 -8.18855940914091  3.44486477777778  0.24082442164216
 6 -5.51218699989999  5.85667675897590  1.27860438563856
 6 -8.68430764316432  5.92551761976198  0.29863988588859
 6 -8.38543774157416  7.16079216351635 -0.03097736003600
 7 -9.15320035573557  0.68430490879088 -0.67589929522952
 6 -9.86379803880388  1.78842952555256 -0.62039716391639
 6 -11.15629037193719  1.50784177457746 -0.96947169676968
 6 -11.25633415411541  0.08793267056706 -1.18062732893289
 6 -9.96399628332833 -0.39227771587159 -0.86562586548655
 6 -12.17263550565056  2.49875215611561 -1.30408093899390
 6 -12.42257230293029 -0.70432149434943 -1.55617079427943
 6 -12.39201553355336 -0.99085297049705 -3.06090419581958
 7 -7.22413866596660 -1.41899126072607 -0.15211833053305
 6 -8.26704192649265 -2.30108604810481 -0.45592339823982
 6 -7.78014568206821 -3.60253443634363 -0.50679910891089
 6 -6.37772329432943 -3.48570288578858 -0.17268976107611
 6 -6.14845962416242 -2.09660581508151  0.03845546694669
 6 -8.71366171087109 -4.84747756665667 -0.98078762576258
 6 -5.26273281098110 -4.34530051535154  0.17594609450945
 8 -5.15418678047805 -5.60277293089309  0.18656469126913
 6 -4.16657006700670 -3.29636257035704  0.51738263026303
 6 -3.57522188638864 -3.72327841244124  1.94395557525753
 8 -3.82597625222522 -3.14452768556856  2.91323503880388
 8 -2.63010435833583 -4.75829398189819  1.67224531253125
 6 -2.00924356285629 -5.14021449074907  2.87521885888589
 6  2.74059783638364 -0.66681593929393 -1.36369174407441
 6  4.03346666906691 -0.47750159955996 -0.57919044774477
 6  5.05559916731673  0.31714503900390 -0.95787568776878
 6  4.96997441404140  1.30982551885189 -2.07588467956796
 6  6.33088954655465  0.30719952685269 -0.17735442164216
 6  7.68567630653065 -0.23234511641164 -0.94188385708571
 6  8.92418150055006 -0.11943167666767 -0.13370596479648
 6  10.16032692569257 -0.52008910721072 -0.80982737713771
 6  10.17233441964196 -1.92423175807581 -1.24161582308231
 6  11.42940405750575 -0.14433532413241  0.05250544924492
 6  12.73474064306431 -0.45939245514551 -0.57137767756776
 6  13.97784347214722 -0.00295705890589  0.21795900890089
 6  15.36734207820782 -0.02339495119512 -0.47095014531453
 6  15.71890599279928 -1.53275606140614 -0.93687096689669
 6  16.40114336833683  0.51087547364736  0.53177236193619
 6  17.77069277357736  0.45415354115412 -0.01909018891889
 6  18.83064846434644  1.19698154495450  0.80925328702870
 6  20.24682236203621  1.18389413401340  0.20789039263926
 6  20.33474370327033  1.95828147614762 -1.02827864926493
 6  21.33190106420642  1.91829619901990  1.13425012661266
 1 -3.91836209470947  3.53427180888089  1.24284880588059
 1 -10.14840859255925  3.92013959785979 -0.52840714331433
 1 -10.27129639143914 -2.52791284598460 -0.98504205170517
 1 -2.74295298599860 -1.20263992769277  2.04976221482148
 1 -2.15818545654565  1.63273176177618  1.29722408890889
 1 -1.81797552085209  1.08411390039004  3.68429864326433
 1 -3.16017080328033  2.35794525112511  3.37791235873587
 1 -3.81609259045905  0.70176454415442  3.84099798429843
 1 -2.17879040594059 -1.61633755415542 -0.46191117711771
 1 -2.24136833903390  0.05550764206421 -0.80739584118412
 1 -0.16694378837884  0.58693661716172  0.86129838173817
 1 -0.08631458515852 -1.10360333573357  1.08459133503350
 1 -4.75459762746275  6.04942011711171  0.62431421362136
 1 -5.84206887718772  6.85026482528253  1.48385307450745
 1 -5.11190441924192  5.54960013141314  2.11031471017102
 1 -9.60862836173617  5.71509444554455  0.48954679917992
 1 -9.15415605600560  7.92184077357736 -0.06540594729473
 1 -7.49351438803880  7.49904047324733 -0.26745121572157
 1 -12.01967738053805  3.18613591889189 -2.13630992939294
 1 -13.14663987748775  1.99496513461346 -1.53269679337934
 1 -12.26385334673467  3.38277136253625 -0.49288078607861
 1 -12.56028855695570 -1.60030242844284 -1.03697390529053
 1 -13.35625162876288 -0.15969978297830 -1.37038439543954
 1 -13.32962342854285 -1.68970020922092 -3.17172016971697
 1 -12.48426860086009 -0.04295302120212 -3.69295687068707
 1 -11.48267161476148 -1.42925586958696 -3.44027314281428
 1 -8.90570146604660 -4.54431728002800 -2.06525410681068
 1 -8.21434513551355 -5.77962807100710 -0.91328555665567
 1 -9.60288245404540 -4.85766255325533 -0.30799905610561
 1 -3.43860399239924 -3.25299688418842 -0.25346199919992
 1 -1.67216830683068 -4.06336471377138  3.33002968996900
 1 -2.57577276467647 -5.69557019941994  3.64314153625363
 1 -1.14892631913191 -5.87592176927693  2.85486218911891
 1  2.57536220732073 -1.75839552945295 -1.80404448074808
 1  2.47071877207721  0.01672459085909 -2.20134215401540
 1  4.16492571687169 -1.14799280548055  0.15533790999100
 1  3.92627356365637  1.50526162246225 -2.33445678797880
 1  5.74015731413141  2.23079746994699 -1.89469382398240
 1  5.35216053885389  0.76733706390639 -2.93728502780278
 1  6.78422144544454  1.40691691939194 -0.16002850515052
 1  6.31751509950995 -0.02636588548855  0.99849085618562
 1  7.51896563866387 -1.29566063776378 -1.23630775947595
 1  7.72609414041404  0.46790366686669 -1.85766591349135
 1  9.06688278547855  0.97851046754675 -0.02213825132513
 1  8.77296511931193 -0.75260361576158  0.72526714531453
 1  10.20668237973797  0.29264403070307 -1.65351918251825
 1  9.35866236263626 -2.21083812811281 -1.87621258245825
 1  11.22670575527553 -2.15112162476248 -1.74601078707871
 1  10.12410988458846 -2.60412203480348 -0.33186527722772
 1  11.27918268046805  0.88875328282828  0.29852181558156
 1  11.39851026072607 -1.03953629172917  0.85147262026203
 1  12.71188692439244 -1.53978083948395 -0.91088942384238
 1  12.75123402940294  0.17543702270227 -1.53065142894289
 1  13.79312081528153  0.98759201470147  0.64806146664666
 1  14.08133422372237 -0.77570000730073  1.03172834253425
 1  15.58457084918492  0.46588644904490 -1.35299495899590
 1  15.98479048004801 -2.06870359625963 -0.01104870247025
 1  14.76948448024802 -1.95550374397440 -1.45155287568757
 1  16.75014307290729 -1.35507943654365 -1.68124023282328
 1  16.08584379407941  1.57393646634663  0.69969339033903
 1  16.20577227922793  0.16203980828083  1.67886081778178
 1  18.05102429432943 -0.48887585138514 -0.09496550415042
 1  17.85694577577758  0.86142740124012 -1.18970245414541
 1  18.54416309910991  2.21747364696470  0.99142424332433
 1  19.00016629402940  0.64290790209021  1.76066241784178
 1  20.83400346704670  0.26267270307031  0.04322207260726
 1  20.18281511481148  3.18306729162916 -1.06277654715472
 1  21.48380449434944  1.87060293819382 -1.48312956695670
 1  19.52207304050405  1.36634803710371 -1.68019844314431
 1  21.23518353365337  1.44490379417942  2.17939738133813
 1  22.35795043554355  2.08007653885389  0.84985925212521
 1  20.90400293289329  2.77426110231023  1.38062399359936

