%nproc=4
%Mem=2GB
# td=(NStates=1) CAM-B3LYP/6-31G(d,p) 

TD

0 1
12 -7.14575624492449  0.63222146284628  0.07155520412041
 6 -4.85593447454745 -1.96422853415342  0.44896053095310
 6 -4.79121842814281  2.87404173147315  1.17874133133313
 6 -9.40148473727373  2.98705110451045 -0.38136946994699
 6 -9.54752578017802 -1.78099827482748 -0.86976509150915
 7 -5.09680246184618  0.37992925342534  0.67108462886289
 6 -4.34742234753475 -0.74416503690369  0.73856575937594
 6 -2.85143610481048 -0.37928320042004  1.16733217441744
 6 -3.00917120632063  1.05043617611761  1.66018882528253
 6 -4.38150623732373  1.45172555295530  1.06835309650965
 6 -2.92023981498150  1.27883437073707  3.17979150525053
 6 -1.87385166606661 -0.53758776887689 -0.08478915311531
 6 -0.39566782078208 -0.47991622302230  0.56831541444144
 6  0.62370174857486 -0.71443487558756 -0.51584323612361
 8  0.20410095979598 -0.97284868866887 -1.70984026432643
 8  1.85791281628163 -0.50531543834383 -0.15302952305231
 7 -7.03299090759076  2.52974438173817  0.27181233803380
 6 -6.03609074007401  3.33493444734473  0.80251823582358
 6 -6.47773576327633  4.83372400280028  0.93368113261326
 6 -7.80324091949195  4.75114500120012  0.54533144014401
 6 -8.14242479567957  3.41658194949495  0.08687902710271
 6 -5.70051583278328  5.90301139243924  1.53257978317832
 6 -8.58518773117312  5.95589065706571  0.29749977187719
 6 -8.25956515431543  7.15689177347735  0.03646938463846
 7 -9.10320535623562  0.63218969726973 -0.62218392369237
 6 -9.84629628862886  1.74845552815282 -0.70679580378038
 6 -11.18794353725373  1.49596058645865 -1.13436818641864
 6 -11.19675819651965  0.09531340864086 -1.18827809400940
 6 -9.93168305200520 -0.38653714181418 -0.88103740664066
 6 -12.23615185728573  2.41017329822982 -1.31093162406241
 6 -12.40659070477048 -0.66989805200520 -1.62681785898590
 6 -12.46497282928293 -0.98282216741674 -3.11890999639964
 7 -7.29768602070207 -1.41833119471947 -0.12367548624862
 6 -8.32550777307731 -2.28088402790279 -0.59856766266627
 6 -7.87306497399740 -3.57607179007901 -0.54258268726873
 6 -6.55248077007701 -3.55300961646165 -0.20935342744274
 6 -6.25857063526353 -2.15099125362536  0.02928454985499
 6 -8.81714205890589 -4.81671449034903 -0.64020356735674
 6 -5.33644018171817 -4.36269225452545  0.07254575447545
 8 -5.18837019881988 -5.55457811141114 -0.00970493569357
 6 -4.10517392739274 -3.29172210631063  0.42218311031103
 6 -3.64323868806881 -3.66400248484848  1.86893807350735
 8 -3.95273892849285 -3.24994822762276  2.95565928122812
 8 -2.79995134303430 -4.71733988648865  1.70945903390339
 6 -2.31601423992399 -5.26619708900890  2.92132346934693
 6  2.87355113171317 -0.70721997969797 -1.12897827272727
 6  4.22193551595160 -0.38522237163716 -0.54305683438344
 6  5.24067767516752  0.38264158865887 -1.00449034923492
 6  5.18816623322332  0.98704324062406 -2.39085617671767
 6  6.37287374497450  0.50409921682168 -0.11392807900790
 6  7.51241898079808 -0.06096797869787 -0.82614228292829
 6  8.92208129052905  0.00885115161516 -0.10371296549655
 6  10.26508740174017 -0.52847994629463 -0.82211860626063
 6  10.01739892609261 -2.07228656355636 -1.12051371287129
 6  11.41907302440244 -0.20334122472247  0.00689088778878
 6  12.80097726672667 -0.26987350325033 -0.68742928272827
 6  13.96456214401440 -0.16798356155616  0.29286649964997
 6  15.39498484248425 -0.18032064376438 -0.36789984028403
 6  15.78050215241524 -1.65701848764876 -0.58686596639664
 6  16.51460471447145  0.47133151925193  0.42865204990499
 6  17.95705140944094  0.47256538233823 -0.18106638653865
 6  18.88315371487149  1.22754460126013  0.65305766746675
 6  20.32619029882988  1.38037378197820 -0.04533492989299
 6  20.36999722862286  2.27925357335734 -1.19349517091709
 6  21.22888076217622  1.84035840524052  1.10269697129713
 1 -4.01605186368637  3.55061344304430  1.44981950295029
 1 -10.21267501920192  3.76254383828383 -0.33401770437044
 1 -10.35565482728273 -2.46346640134013 -0.93259680718072
 1 -2.55895458615862 -1.00134979867987  1.98076531513151
 1 -2.17593723172317  1.87796628522852  1.27448181468147
 1 -1.96857058035804  0.84122961196120  3.26135634903490
 1 -3.24102888908891  2.36276573317332  3.47842240974097
 1 -3.65122610381038  0.54950931863186  3.65054893939394
 1 -2.25042756965697 -1.46425234563456 -0.48752373837384
 1 -1.94950915311531  0.43449554085409 -0.69671477307731
 1 -0.21904899889989  0.49357728122812  1.21820407230723
 1 -0.38012396609661 -1.32850582598260  1.12257513341334
 1 -4.85916808450845  6.53027820292029  1.08821060326033
 1 -6.42420709100910  6.79490928972897  1.79612430163016
 1 -5.10800402920292  5.72302747414741  2.49193287198720
 1 -9.58460595949595  5.55452838893889  0.37008485298530
 1 -8.92298293869387  8.05348393789379 -0.14456386308631
 1 -7.06141117771777  7.51223179237924  0.19021455085509
 1 -12.34971038383839  2.86821412671267 -2.32226852525253
 1 -13.31887710121012  1.82654829292929 -1.33138666236624
 1 -12.36374333573357  3.12268535393539 -0.49319081708171
 1 -12.28353088118812 -1.49766216441644 -0.96301650955095
 1 -13.32598860246025 -0.14160797379738 -1.06012336933693
 1 -13.24846531273127 -1.43417465666567 -3.35259825752575
 1 -12.33023319731973 -0.05821454735474 -3.65701327632763
 1 -11.55338868646865 -1.37581052505251 -3.32294140964096
 1 -9.19675057095710 -4.84251710001000 -1.64783236463646
 1 -8.29857355835584 -5.83535364356436 -0.40129435753575
 1 -9.80255242104210 -4.67765455245525 -0.13181143734373
 1 -3.39704983698370 -3.66290787528753 -0.10850750375038
 1 -2.13572466246625 -4.29151752905291  3.59201588858886
 1 -3.11423661106111 -5.92043268566857  3.59556677877788
 1 -1.50803222972297 -5.86289046614661  2.59659636253625
 1  2.87260193129313 -1.63761345124512 -1.54087816411641
 1  2.68621032123212 -0.03820090169017 -2.00191221102110
 1  4.32832205650565 -0.81129913611361  0.44217659385939
 1  4.25568650495049  0.90884198049805 -2.87520086238624
 1  5.23282658105810  2.08346273647365 -2.27379173377338
 1  5.89609493229323  0.52618294849485 -3.03130442974297
 1  6.75920894419442  1.59151537923792  0.15329282698270
 1  6.39677302530253 -0.10048329722972  0.97371837893789
 1  7.37142088418842 -0.99545061676168 -1.10288441714171
 1  7.79707123812381  0.34063093959396 -1.77257740464046
 1  8.95467156435643  1.07685030153015  0.08044200670067
 1  9.00368819161916 -0.58112646804680  0.88740335893589
 1  10.42487419891989 -0.08209344304430 -1.66455028562856
 1  8.99284578097810 -2.37708475277528 -1.81945690689069
 1  10.82864594929493 -2.65717222982298 -1.70512669866987
 1  9.96305377897790 -2.44383600620062 -0.21039313001300
 1  11.21994675687569  0.94573898139814  0.12727469086909
 1  11.50224063376338 -0.81457379547955  0.96624409740974
 1  12.87637337303730 -1.31215807720772 -1.00523885878588
 1  12.76829573557356  0.30501998099810 -1.62402076587659
 1  13.74234573777378  1.05001825732573  0.64021068156816
 1  13.87627371767177 -0.90209264656466  1.15696086578658
 1  15.24500689278928  0.31206106650665 -1.23400305980598
 1  15.95803780478048 -2.25935266116612  0.43803620602060
 1  15.07312484428443 -2.20697889148915 -1.28198591899190
 1  16.60916897549755 -1.73832776137614 -1.05658776757676
 1  16.25855106480648  1.58728780148015  0.68676209720972
 1  16.74605630763076 -0.11061745744574  1.43096602830283
 1  18.12371156305631 -0.51826879067907 -0.52658866646665
 1  17.97830791199120  0.82864412291229 -1.38255173907391
 1  18.47907659045904  2.24404630423042  0.73060816171617
 1  18.86303258065806  0.83438705000500  1.64033038463846
 1  20.46537660436043  0.41101753755376 -0.04666691629163
 1  19.90519735303531  3.32193117801780 -0.78314858435844
 1  21.47771388528853  2.53753963186319 -1.52118337233723
 1  19.92907374057405  1.71770317261726 -2.05017544084408
 1  21.33169318461846  1.14470377417742  1.83638307990799
 1  22.34229887038704  2.23173170437044  0.91272553875388
 1  20.86344887748775  2.83655733193319  1.74965089628963

