%nproc=4
%Mem=2GB
# td=(NStates=1) CAM-B3LYP/6-31G(d,p) 

TD

0 1
12 -7.13085475477548  0.64279251995200  0.05534358295830
 6 -4.87469635073507 -1.89035114641464  0.49508514341434
 6 -4.79264857115712  2.84530885818582  1.14292774997500
 6 -9.41306589538954  3.04103650305031 -0.42622395539554
 6 -9.58559958755876 -1.75805598059806 -0.79393750875088
 7 -5.07523030463046  0.55345660616062  0.64833235363536
 6 -4.33909151445144 -0.69250987138714  0.76300820362036
 6 -2.93850481168117 -0.46480175227523  1.23027846904690
 6 -2.98583887308731  1.13328446094609  1.62663546994699
 6 -4.31527961466147  1.53459383978398  1.09868612981298
 6 -2.86714450545055  1.34895138243824  3.11739526562656
 6 -1.83112739363936 -0.68574258435844  0.09292861866187
 6 -0.43936219021902 -0.42799103050305  0.55279386228623
 6  0.49825920432043 -0.63806723882388 -0.63131478327833
 8  0.31015156485649 -0.98953035683568 -1.76093537383738
 8  1.74526155115512 -0.50437534433443 -0.17285150525053
 7 -7.01479908840884  2.65184659195920  0.27055221202120
 6 -6.03580071107111  3.34134508840884  0.70846883088309
 6 -6.37217520722072  4.77544817521752  0.89846761126113
 6 -7.69762035743574  4.85079496619662  0.43671057805781
 6 -8.23979453265327  3.43957424872487  0.14584492369237
 6 -5.54394017521752  5.86498759005901  1.45522204740474
 6 -8.64147335973597  6.02735780378038  0.48700872277228
 6 -8.29647884568457  7.20906699099910  0.26676241394139
 7 -9.15038007370737  0.66772325062506 -0.52806451175118
 6 -9.91326298529853  1.71712239483948 -0.60748587278728
 6 -11.23424816771677  1.42266325672567 -0.99618436803680
 6 -11.30237875857586 -0.00723684638464 -1.19681894809481
 6 -9.99795967966797 -0.40392888098810 -0.77305660856086
 6 -12.23377161926193  2.41124340524052 -1.40128065896590
 6 -12.48293833953395 -0.63729479167917 -1.76701187838784
 6 -12.08927525952595 -1.10501438663866 -3.21817992339234
 7 -7.25626187828783 -1.44238359996000 -0.08404152285229
 6 -8.30667588988899 -2.23298923842384 -0.42458026392639
 6 -7.89891755925593 -3.64573875677568 -0.61131956095610
 6 -6.52104762676268 -3.57995231073107 -0.11812430453045
 6 -6.23736851505150 -2.22518867336734  0.05102672407241
 6 -8.73585393009301 -4.86693951285129 -0.91989153615362
 6 -5.41011754945495 -4.33233921922192  0.21193969386939
 8 -5.21669303110311 -5.57905055865587  0.16971300610061
 6 -4.30139354935493 -3.29648258235824  0.51877276927693
 6 -3.55665002920292 -3.66095217981798  1.84329550925093
 8 -3.82418607320732 -3.11136436923692  2.87158087338734
 8 -2.71232258015802 -4.59057721022102  1.68066615461546
 6 -2.12073471197120 -5.04993546284629  2.90302163916392
 6  2.77139091569157 -0.71578083578358 -1.20466584148415
 6  4.12005532793279 -0.48319216861686 -0.53759628832883
 6  5.14826843424342  0.22378570307031 -1.01563146334633
 6  5.18284570117012  1.07266180248025 -2.27736482758276
 6  6.43297975557556  0.29393820072007 -0.09071575777578
 6  7.57472521142114 -0.39887176907691 -0.86289595829583
 6  8.82297137953795 -0.14679441294129 -0.06859945414541
 6  10.18487938093809 -0.51396849514951 -0.77676407080708
 6  10.27284447064707 -1.94253358825883 -1.31029269076908
 6  11.44880599769977 -0.17624851545155 -0.02027182848285
 6  12.78428559755976 -0.44275079097910 -0.71564210401040
 6  13.98931461926193 -0.24618138133813  0.28709592259226
 6  15.39685502950295 -0.20732334403440 -0.48298134843484
 6  15.67734183638364 -1.61446423222322 -0.91710899069907
 6  16.51046430043004  0.28272265836584  0.43550273497350
 6  17.89915561986199  0.53521164696470 -0.33719199909991
 6  18.83990939043904  1.24664651145115  0.78934129582958
 6  20.28586626642664  1.46211195579558  0.20344994859486
 6  20.33858408730873  2.21786743474347 -1.12945876727673
 6  21.05189306340634  2.11902627202720  1.27880458205821
 1 -3.86147640614061  3.46074445614561  1.53688820982098
 1 -10.02515626732673  3.92777036093609 -0.39532383498350
 1 -10.41094035583558 -2.40692074677468 -1.03064661216122
 1 -2.76675536623662 -0.88345800950095  2.22089932853285
 1 -2.26747638563856  1.68906739533953  1.11991635813581
 1 -1.85482920622062  1.03316880588059  3.62744295769577
 1 -3.10464525072507  2.57226668326833  3.46758132563256
 1 -3.55572655385539  0.74164853255326  3.80059394389439
 1 -1.96473900080008 -1.85893181358136 -0.30359534553455
 1 -2.11103530573057 -0.25101301000100 -0.87653275487549
 1 -0.49533662766277  0.43690161366137  0.94036628852885
 1 -0.25557151085109 -1.04407738313831  1.42691556745675
 1 -4.73344551225123  6.31280645574557  0.90867264946495
 1 -6.34602927322732  6.64982478127813  1.87253194239424
 1 -4.86073930273027  5.51943711511151  2.28305198389839
 1 -9.65115261416141  5.94991792789279  0.61587943244324
 1 -9.09102974337434  7.99586817631763  0.50258085138514
 1 -7.29234427102710  7.69264983418342 -0.29819429002900
 1 -11.88075348814881  2.89793709900990 -2.39901620002000
 1 -13.11533674717472  1.88348398649865 -1.59773329702970
 1 -12.23219018041804  3.28769185458546 -0.67799929792979
 1 -12.84291681978198 -1.80976337453745 -1.35542575047505
 1 -13.31463746734673  0.09848603560356 -1.68290564756476
 1 -12.91871233743374 -1.73217445664566 -3.64155715341534
 1 -12.20559073307331 -0.16126485238524 -3.96529410441044
 1 -11.24428777637764 -1.82133507750775 -3.28504762026203
 1 -8.73699459535954 -4.80207305560556 -2.08753633503350
 1 -8.30766446744675 -5.83279338753875 -0.55269949804980
 1 -9.82495466126613 -4.79758654565457 -0.44912316851685
 1 -3.51400153215322 -3.49731131563156 -0.30064671767177
 1 -1.90674176417642 -4.19816819411941  3.42999968696870
 1 -3.00619580698070 -5.47013765616562  3.42437966006601
 1 -1.36084751125112 -6.03243742084209  2.64529123202320
 1  2.62995766686669 -1.85003469336934 -1.54074815111511
 1  2.50464216441644  0.18535145354535 -2.08874089388939
 1  4.23295251955196 -1.09639764596460  0.51565394159416
 1  4.11385232153215  1.20811190749075 -2.69103244554455
 1  5.78942224062406  1.95876026622662 -2.11656601120112
 1  5.75232055485549  0.69547987818782 -3.08194949424942
 1  6.47778080138014  1.38939516721672  0.22222972067207
 1  6.12059540754075 -0.15207845674567  0.84893590069007
 1  7.22072581468147 -1.38943001470147 -0.99514364306431
 1  7.62426395739574  0.05323219971997 -1.83471361826183
 1  8.84186028322832  0.83809642614261  0.32563652615262
 1  8.75936375917592 -0.77008536393639  0.93052767136714
 1  10.35347705920592  0.09232399869987 -1.75091892249225
 1  9.45325182158216 -2.19469651395139 -1.95891085228523
 1  11.21232431713171 -2.16146265886589 -1.90083626962696
 1  10.48763623722372 -2.73185480808081 -0.63009510021002
 1  11.29509427162716  0.92000640814081  0.15030699409941
 1  11.40370077977798 -0.61743408150815  1.02994046704670
 1  12.88057379307931 -1.41076793819382 -1.04109244414441
 1  12.76578548454846  0.30224970397040 -1.55876424022402
 1  13.78402990619062  0.72487574307431  0.68665532603260
 1  13.82663875417542 -0.89967240454045  1.19825499519952
 1  15.16295868796880  0.55860572097210 -1.31810146964696
 1  15.86786878787879 -2.35067179307931  0.09174157655766
 1  15.02774030583058 -2.07342553615362 -1.60461818221822
 1  16.57847590619062 -1.76344027262726 -1.67354946374637
 1  16.11875708540854  1.28773784648465  0.96705012601260
 1  16.65732743474348 -0.40950734643464  1.32970590229023
 1  18.41969116101610 -0.31217818161816 -0.65400140774077
 1  17.82132221342134  1.42549380788079 -1.04852833673367
 1  18.12843152595259  2.35411731133113  1.08952405330533
 1  18.96708298569857  0.56635024632463  1.72016836843684
 1  20.51109117581758  0.40945738153815 -0.02486473607361
 1  19.77036386968697  3.33782276717672 -0.96146641614161
 1  21.23761987588759  2.50022590049005 -1.55708696269627
 1  19.78276911011101  1.44480588288829 -1.75077550085009
 1  20.79873988928893  1.78413771757176  2.27894733633363
 1  22.17812245274527  2.04412294349435  1.06661092729273
 1  20.77542007460746  3.20106378257826  1.35266119731973

