%nproc=4
%Mem=2GB
# td=(NStates=1) CAM-B3LYP/6-31G(d,p) 

TD

0 1
12 -7.08789045834583  0.57028526922692  0.01051910051005
 6 -4.93137201830183 -1.92194430573057  0.52227786268627
 6 -4.80767007330733  2.81911623892389  1.21888534573457
 6 -9.38667325612561  3.06937933733373 -0.36726805980598
 6 -9.48300932853285 -1.72705288028803 -0.85250336533653
 7 -5.16188897049705  0.45280654115412  0.74419193959396
 6 -4.40803840914091 -0.72049266966697  0.90529243204320
 6 -2.98453941514151 -0.43152842494249  1.26024146534653
 6 -3.06628691789179  1.05270640314031  1.74353716011601
 6 -4.44934302100210  1.51461184158416  1.10730699189919
 6 -3.05941373237324  1.19278576587659  3.23675720182018
 6 -2.01004528542854 -0.57640165026503  0.13072239803980
 6 -0.47522577657766 -0.25442367376738  0.63457204010401
 6  0.46592597099710 -0.77560099219922 -0.45746739853985
 8  0.10430097979798 -1.09588099189919 -1.64020330063006
 8  1.73706073107311 -0.61408631543154 -0.14720894099410
 7 -7.06479408790879  2.60624203150315  0.30904606140614
 6 -5.99053618461846  3.33108406230623  0.83666165016502
 6 -6.43032102180218  4.80381101150115  0.91867963246325
 6 -7.74127472287229  4.79746963366337  0.48961586858686
 6 -8.12036258945895  3.48992928422842  0.12237257645765
 6 -5.66996277747775  5.89788087938794  1.37539406460646
 6 -8.58244745714572  6.03503857185719  0.36619664156416
 6 -8.25989518731873  7.26944302860286  0.02483822152215
 7 -9.15863089878988  0.62106858515852 -0.43741544684468
 6 -9.84538619761976  1.77440812341234 -0.57494261846185
 6 -11.15660040294029  1.44732572297230 -1.10380513011301
 6 -11.18131665236524  0.03368724602460 -1.28172743894389
 6 -9.88206809050905 -0.37874636273627 -0.83904320722072
 6 -12.31424966706671  2.36333861476148 -1.41150168106811
 6 -12.24050409610961 -0.72068313051305 -1.88969414661466
 6 -12.22380871287129 -0.92648653385339 -3.43303140854085
 7 -7.26290254235424 -1.45189455105511 -0.17919103780378
 6 -8.26396161846185 -2.29436537603760 -0.53916172207221
 6 -7.83973164066407 -3.65327951085108 -0.49404783378338
 6 -6.45531105310531 -3.55708002350235 -0.15906839893989
 6 -6.15308008620862 -2.19552570707071  0.08659028042804
 6 -8.69554989968997 -4.84034685358536 -0.72824237123712
 6 -5.31733827152715 -4.31080706600660  0.28079657955796
 8 -5.06357771957196 -5.56422907650765  0.19147518231823
 6 -4.17403081308131 -3.33027596169617  0.56053694569457
 6 -3.55980034423442 -3.63283936853685  1.91110228992899
 8 -3.79410306490649 -3.06264949774977  2.94905862116212
 8 -2.66209755765577 -4.60450860336034  1.63445153315332
 6 -1.97384002250225 -4.98895936523652  2.88631996899690
 6  2.73192696929693 -0.73847310501050 -1.24511988688869
 6  4.03955727812781 -0.63876772617262 -0.57816034473447
 6  5.02034564196420  0.29475279977998 -0.98513841404140
 6  4.96205362196220  1.31289582588259 -2.13352044314431
 6  6.38871532913291  0.21333013991399 -0.18387507370737
 6  7.58171591049105 -0.25498738063806 -0.94969463816382
 6  8.87121620402040 -0.16684641814181 -0.21190378457846
 6  10.24028492149215 -0.50837793609361 -0.89741613601360
 6  10.18509569576958 -1.96639597449745 -1.38431009250925
 6  11.47815893299330 -0.11438232883288 -0.16922672397240
 6  12.80495766476648 -0.31554807070707 -0.91068160796080
 6  13.97913360116012 -0.05549231243124 -0.00450323732373
 6  15.39809515351535 -0.08695130683068 -0.58398144844484
 6  15.62467656985699 -1.61579436523652 -0.89206648644864
 6  16.41929518351835  0.42575696179618  0.36556574127413
 6  17.90502620692069  0.54415254105411 -0.06358463836384
 6  18.83009840934093  1.18992083888389  0.87112947464747
 6  20.28373605340534  1.28749449404940  0.26175577917792
 6  20.36202643154315  2.17667331533153 -0.92275809720972
 6  21.22078995309531  1.85222959235924  1.31570827242724
 1 -3.89298955745575  3.48393677537754  1.80713523452345
 1 -10.18293204490449  3.69345692959296 -0.68718302090209
 1 -10.41534079587959 -2.52503255795580 -1.09585313281328
 1 -2.50882957365737 -1.23057272097210  2.08042528112811
 1 -2.26942658065807  1.69014750335033  1.14370873737374
 1 -1.97542126542654  0.98130361936194  3.54991520492049
 1 -3.30509529572957  2.13852330893089  3.53155772327233
 1 -3.59236021722172  0.48980334803480  3.84253813831383
 1 -2.02977550445044 -1.50615653605361 -0.49984497049705
 1 -2.20013421562156  0.09256134743474 -0.68314341594159
 1 -0.46113320732073  0.87697562106211  0.60113236513651
 1  0.05731977827783 -0.57932090749075  1.61862473837384
 1 -5.22488465616562  6.54391956705671  0.50703248544854
 1 -6.17930260056006  6.52742254105411  1.98552324152415
 1 -4.87529075787579  5.39843501490149  2.04597827652765
 1 -9.72633013191319  5.77203013911391  0.52477032153215
 1 -8.82010265066507  8.24951354085409  0.05001559485949
 1 -7.22182721932193  7.53936450565057  0.14644017341734
 1 -12.13551896469647  2.93767107240724 -2.42111841024102
 1 -13.16757197069707  1.78854449254926 -1.69224274797480
 1 -12.61793875527553  3.09194227962796 -0.70551204920492
 1 -12.28366089418942 -1.67550994919492 -1.38570877877788
 1 -13.24242024562456 -0.26070988398840 -1.58980633763376
 1 -13.29235970217022 -1.28742998219822 -3.71818481618162
 1 -12.16754692869287  0.05968724282428 -3.85538311331133
 1 -11.32037538513851 -1.57072001600160 -3.69005812131213
 1 -9.06358725462546 -4.71076392469247 -1.69029661106111
 1 -8.06960066106611 -5.69183929212921 -0.68077230533053
 1 -9.57593975977598 -4.84032081908191 -0.14428268446845
 1 -3.47780791279128 -3.49958154265427 -0.20021667466747
 1 -1.40400149014901 -4.21250962826283  3.34210089708971
 1 -2.86678186558656 -5.22341298369837  3.56740396249625
 1 -1.46546797329733 -5.82249642674268  2.51773847674767
 1  2.68202287338734 -1.71614130403040 -1.67802187848785
 1  2.48795049524953 -0.03775085668567 -2.00460248004801
 1  4.01908113241324 -1.08929693589359  0.37276965316532
 1  3.97045798209821  1.35646674297430 -2.65933927622762
 1  5.42685598399840  2.26367075727573 -1.76374072867287
 1  5.81940726352635  1.00576090629063 -2.85979727902790
 1  6.50601362466247  1.39604583228323  0.11817931563156
 1  6.39926327432743 -0.49444269316932  0.63442444954496
 1  7.56520026212621 -1.22387345904590 -1.36146027472747
 1  7.91097262826283  0.29801667816782 -1.88519866676668
 1  9.02845894309431  0.79265188168817  0.22251621412141
 1  8.80577840064006 -0.98028638403840  0.51924654325433
 1  10.37599931143114  0.04911967826783 -1.92506633723372
 1  9.33414991139114 -2.10368741304130 -1.98822378357836
 1  11.13668675337534 -2.30939745234523 -1.82215840184018
 1  10.11579905350535 -2.53987561016102 -0.44448653935394
 1  11.40451521372137  1.04251865936594  0.30785274867487
 1  11.77673808350835 -0.68083042114211  0.73160063306331
 1  12.69757549324932 -1.49697655905590 -1.27310564546455
 1  12.86934584058406  0.26169564856486 -1.75295365916592
 1  13.79221072427243  0.96997025252525  0.37310397089709
 1  13.90044613491349 -0.80092252955296  0.90291546124612
 1  15.35716810891089  0.36483634403440 -1.64925458495850
 1  15.80209221022102 -2.21080780668067  0.06957936033603
 1  14.44040157195720 -1.96332452605260 -1.39923764416442
 1  16.63365142374237 -2.07847177577758 -1.57345945474547
 1  16.14800000970097  1.43258233093309  0.72607602860286
 1  16.33487518951895 -0.02263865956596  1.48732166386639
 1  18.28112730463047 -0.56888385218522 -0.55950195779578
 1  17.67244732593259  1.11332259075908 -1.11766525042504
 1  18.53363204600460  2.18332023162316  0.95122022292229
 1  19.09902618001800  0.57527113841384  1.53295964756476
 1  20.42569263596360  0.30288672447245 -0.12908515811581
 1  19.78220505380538  3.09639862476248 -0.67860813031303
 1  21.41603771767177  2.56679255715571 -1.20247150115011
 1  19.93634446764676  1.61085248754876 -1.76625704900490
 1  21.35368538383839  1.16681598539854  2.27027646924692
 1  22.20723536403640  1.86093462466247  0.96165043124312
 1  20.94441697429743  2.79704338053805  1.45649158035804

