%nproc=4
%Mem=2GB
# td=(NStates=1) CAM-B3LYP/6-31G(d,p) 

TD

0 1
12 -7.11296296559656  0.59064730543054  0.02456050465047
 6 -4.81712059315932 -1.95954806610661  0.42614824972497
 6 -4.82242154845485  2.81811613891389  1.25823928112811
 6 -9.44328891769177  3.10846324572457 -0.33632496549655
 6 -9.50689171677168 -1.77497767276728 -0.84791290629063
 7 -5.12155493709371  0.46625788628863  0.65764328472847
 6 -4.38148575387539 -0.66345696609661  0.75341724452445
 6 -2.88528949014901 -0.43251852395240  1.19698513971397
 6 -2.96120640984098  1.06590772327233  1.63185599199920
 6 -4.44545263196320  1.46296667706771  1.21395765696570
 6 -2.77392518351835  1.11640812811281  3.20721424752475
 6 -1.93505778667867 -0.51983599369937  0.05894522032203
 6 -0.41225947994800 -0.34567279867987  0.52608119101910
 6  0.57018639703970 -0.65541897399740 -0.71518317011701
 8  0.20553110281028 -0.97305870967097 -1.74818409870987
 8  1.79682670767077 -0.27868277507751 -0.25841006110611
 7 -7.08089569806981  2.66266767406741  0.34500965776578
 6 -6.08900603160316  3.44371532543254  0.84332231623162
 6 -6.49428741844184  4.72345297569757  1.02297006150615
 6 -7.79149974537454  4.78685857255726  0.42357926492649
 6 -8.10940149334933  3.47358765006501  0.06150648984898
 6 -5.62899868106811  5.89924101540154  1.37706423162316
 6 -8.69688890129013  5.93599866786679  0.30945096699670
 6 -8.14741393919392  7.19074515881588  0.06317205490549
 7 -9.12973800950095  0.75542202050205 -0.46680838613861
 6 -9.90617227622762  1.80750143274327 -0.61242636683668
 6 -11.20924566746675  1.48855984638464 -1.00834558415842
 6 -11.28279680038004  0.05638951625163 -1.12026129232923
 6 -9.86671655535554 -0.36976546464646 -0.78563786668667
 6 -12.33793203530353  2.38495077597760 -1.33404393529353
 6 -12.41638168386839 -0.75759682188219 -1.56019119631963
 6 -12.35491182318232 -1.28014189938994 -3.06636474187419
 7 -7.16351260336034 -1.43423278487849 -0.30321344004400
 6 -8.19262448474848 -2.32350829032903 -0.51973977987799
 6 -7.78232590009001 -3.71640582348235 -0.67690611961196
 6 -6.49041456345635 -3.62969728522852 -0.25936842894289
 6 -6.05349012721272 -2.21903805830583 -0.11462984158416
 6 -8.66769711441144 -4.90600341924192 -0.95616516351635
 6 -5.23749028672867 -4.39313529882988  0.14212271217122
 8 -5.03935529732973 -5.62198485208521  0.12357839263926
 6 -4.14463787378738 -3.31283421752175  0.49587047904790
 6 -3.60577494169417 -3.58369445404540  1.90559173887389
 8 -3.88694234883488 -3.00750398319832  2.88843255855586
 8 -2.66210755865587 -4.57998615111511  1.81916000400040
 6 -2.08375101360136 -4.98371884118412  3.06757809480948
 6  2.73496727332733 -0.65318457615762 -1.24367974287429
 6  4.18130145254525 -0.51943579297930 -0.57501002970297
 6  5.08531213861386  0.33798712321232 -0.92628252845285
 6  5.18923634023402  1.23647818411841 -2.10703779487949
 6  6.37576403400340  0.30478928582858 -0.13791047724773
 6  7.67717545644564 -0.17139902180218 -0.96344601330133
 6  8.90718980138014 -0.12882261576158 -0.18403099729973
 6  10.13323421642164 -0.54638173647365 -0.86333272767277
 6  9.85382256845685 -1.88836817171717 -1.37855951745175
 6  11.35656677377738 -0.24191508210821  0.05186538523852
 6  12.77573474247425 -0.50956747264726 -0.62345288508851
 6  13.91683737153715 -0.10664742794279  0.30265747874787
 6  15.33602894689469 -0.06848946064606 -0.43009605990599
 6  15.70704480668067 -1.51628441424142 -0.97702498229823
 6  16.31670492449245  0.53509789588959  0.37106629132913
 6  17.71277698199820  0.51875000080008 -0.19095737563756
 6  18.79281468096810  1.35434728152815  0.75911827352735
 6  20.21870955075508  1.20145589018902  0.27348695229523
 6  20.48634886378638  1.81018666666667 -1.19423524492449
 6  21.11699957405741  1.82472684208421  1.41473817541754
 1 -4.10688094659466  3.50701908360836  1.60443496449645
 1 -10.23297704940494  3.93442102600260 -0.36492079467947
 1 -10.32467172897290 -2.44173422812281 -1.39839338683868
 1 -2.63479216991699 -1.04379404310431  2.07623486208621
 1 -2.17544718271827  1.60971946054605  1.32711707820782
 1 -1.65352907620762  0.88629411841184  3.40152036543654
 1 -2.85702048824882  2.08262771937194  3.43594816231623
 1 -3.48982996419642  0.66427079477948  3.68664254875488
 1 -1.95433796069607 -1.50081600200020 -0.29757474347435
 1 -2.02290649284928  0.21136322762276 -0.78695379697970
 1 -0.10287738173817  0.55247317081708  1.06948920082008
 1 -0.09803575727573 -0.95345832123212  1.20267314321432
 1 -4.90349251695169  6.13752892799280  0.51737351955196
 1 -6.07412208250825  6.92055185398540  1.65636032523252
 1 -5.13223645244524  5.42724789618962  2.24859853855386
 1 -9.62092959185919  5.75815875197520  0.42051989648965
 1 -9.05381602200220  7.87239582908291  0.00808140144014
 1 -7.18718375497550  7.54350491969197 -0.11361583218322
 1 -12.17358277107711  2.91564887018702 -2.15160145854585
 1 -13.22593780728073  1.64665030313031 -1.61528505220522
 1 -12.44921188258826  2.97656074147415 -0.38607010501050
 1 -12.56075860396040 -1.58286068426843 -1.03002321022102
 1 -13.16495249884989 -0.01368518151815 -1.45705306230623
 1 -13.09384985118512 -1.82645388458846 -3.44752775047505
 1 -12.35234540854085 -0.33641236713671 -3.81761933693369
 1 -11.28952229982998 -1.57962090609061 -3.39231834733473
 1 -9.01725262116212 -5.08377122542254 -1.94757233863386
 1 -8.42225592659266 -5.87640774897490 -0.44638886698670
 1 -9.66288845464546 -4.62518930593059 -0.34015227142714
 1 -3.49663979597960 -3.55000658515852 -0.37254390739074
 1 -1.53991508150815 -4.05746412371237  3.54916160316032
 1 -2.98001318871887 -5.23253389578958  3.82884010611061
 1 -1.43774520102010 -5.91115529262926  2.98096479937994
 1  2.46654132523252 -1.81308099799980 -1.56223029932993
 1  2.46829853005301 -0.09937701930193 -2.07834985478548
 1  4.04546377067707 -0.98210621682168  0.38915129132913
 1  4.29536047234723  1.56163726002600 -2.51476481878188
 1  5.70703400180018  2.21905629582958 -1.59118347294729
 1  5.69117444024402  1.01111144134413 -2.99679097839784
 1  6.61581460476048  1.38300452815281  0.12852034973497
 1  6.49690303830383 -0.37233048194819  0.70928193529353
 1  7.32585632773277 -1.17686875857586 -1.41087521622162
 1  7.91862339333933  0.62420929742974 -1.68568871577158
 1  9.00616671387139  0.85865848234824  0.10337429992999
 1  8.92235005780578 -0.90388874427443  0.86655127372737
 1  10.30519223072307  0.22361712801280 -1.82460629122912
 1  8.85183167956796 -2.08753579787979 -1.82697765896590
 1  10.60832391709171 -2.46234274687469 -1.83160934693469
 1  9.64992246584658 -2.49242086468647 -0.39977206790679
 1  11.22869763196320  0.76081048854886  0.20475243864386
 1  11.45200561026103 -0.94044638273827  0.92355982898290
 1  12.97879361506151 -1.60285714711471 -0.83324165906591
 1  12.68020692669267 -0.00273079407941 -1.58425678947895
 1  13.67055855905591  0.84761801730173  0.68823548404840
 1  13.96466255655566 -0.97955039233923  1.09889505920592
 1  15.17884027612761  0.53041290169017 -1.45472513201320
 1  15.93566556755676 -2.45103182908291 -0.22060965856586
 1  14.91785931773177 -1.91673986758676 -1.65032275267527
 1  16.60507856645665 -1.49697362596260 -1.53749585838584
 1  16.02445765546555  1.69857893059306  0.58813223422342
 1  16.20953265526553 -0.15011140684068  1.42070500220022
 1  18.10930012191219 -0.43149011281128 -0.40666667426743
 1  17.56907698889889  1.05421668016802 -1.12208569246925
 1  18.30138882168217  2.42218411801180  0.86530163106311
 1  18.62018829622962  1.10678428972897  1.78806515811581
 1  20.29393946064606  0.11175761156116 -0.05035728532853
 1  20.23986081938194  2.79172815771577 -1.15458572807281
 1  21.50928704260426  1.59384526242624 -1.49023027702770
 1  19.63722455565556  1.55810721302130 -1.87901832513251
 1  21.25439545484548  1.32686198999900  2.43634307590759
 1  22.16651129162916  1.90433896509651  1.01834610081008
 1  20.78499103170317  2.84787846404640  1.48908483968397

