%nproc=4
%Mem=2GB
# td=(NStates=1) CAM-B3LYP/6-31G(d,p) 

TD

0 1
12 -7.14993666296630  0.68685692639264  0.15032308090809
 6 -4.86877575867587 -1.93143525482548  0.43264889978998
 6 -4.74227353365337  2.75659998729873  1.14489794699470
 6 -9.38128271707171  3.13675607500750 -0.31152248524852
 6 -9.56123715131513 -1.69611978697870 -0.87441555655566
 7 -5.09953273487349  0.39791105160516  0.67617513791379
 6 -4.31476908220822 -0.67992861326133  0.71333323612361
 6 -2.95190615181518 -0.44539981208121  1.20796623782378
 6 -3.10088037723772  0.95555668816882  1.72014482088209
 6 -4.34043212991299  1.43456383678368  1.16094235543554
 6 -2.96788457945795  0.97039352665267  3.26000952705271
 6 -1.87803208410841 -0.67366137623762  0.08818814461446
 6 -0.38310656465647 -0.51716994839484  0.64202278517852
 6  0.53799317771777 -0.67708114021402 -0.55516716851685
 8  0.23470402010201 -0.97186859065907 -1.70103938423842
 8  1.85142216721672 -0.59766467326733 -0.11687590769077
 7 -7.16327393589359  2.59166057335734  0.42995815261526
 6 -6.01790892189219  3.28327928182818  0.78140612461246
 6 -6.38390638033803  4.73250388078808  0.79223698819882
 6 -7.73141373677368  4.82169205590559  0.45574248124812
 6 -8.19688024122412  3.54004429572957  0.18069840904090
 6 -5.41612739393939  5.77378847014701  1.18925545074507
 6 -8.42783199559956  6.03385845384538  0.23444346624662
 6 -8.07426662446245  7.14504058835884 -0.11762602490249
 7 -9.16754178987899  0.60667714601460 -0.40933263856386
 6 -9.94090574957496  1.80595127772777 -0.61383650785079
 6 -11.24438918181818  1.51220221062106 -1.07340208980898
 6 -11.26453497419742  0.12690656795680 -1.31437070327033
 6 -9.99818970267027 -0.36005449354936 -0.85034433733373
 6 -12.30007824992499  2.43106538743874 -1.53453398429843
 6 -12.48400844654465 -0.68504956715672 -1.77237241444144
 6 -12.51947827982798 -0.82348623382338 -3.31182928832883
 7 -7.21319757185719 -1.35432479407941 -0.10038315701570
 6 -8.29852507480748 -2.15119105860586 -0.53560136603660
 6 -7.84746241374137 -3.60155433833383 -0.54205263426343
 6 -6.57884340634063 -3.58160247574757 -0.03157564966497
 6 -6.22199697789779 -2.18620477497750  0.18220984238424
 6 -8.79258960366037 -4.73862668156816 -0.83190273727373
 6 -5.44996153385339 -4.35018100340034  0.27482598249825
 8 -5.25043640544054 -5.61449410301030  0.28390442524252
 6 -4.23182659265927 -3.39228216231623  0.50420131213121
 6 -3.45568993319332 -3.73448953355336  1.84488566826683
 8 -3.63028668326833 -3.15909914271427  2.86606032133213
 8 -2.77182853075308 -4.87642579507951  1.64110219821982
 6 -2.19194183268327 -5.38615908520852  2.85425676267627
 6  2.81671544814481 -0.63690294799480 -1.23241861676168
 6  4.23720704310431 -0.46241009040904 -0.55007753645365
 6  5.18275188258826  0.38837216171617 -0.95323522372237
 6  5.02943035963596  1.33791832813281 -2.11368845994599
 6  6.37083354095410  0.35087389428943  0.03184649844985
 6  7.58819655855586 -0.15272715461546 -0.77352702140214
 6  8.97330641304131  0.01525179167917 -0.01095368956896
 6  10.17045793879388 -0.48002510081008 -0.87092348674867
 6  10.11569875607561 -1.95588492339234 -1.12247390889089
 6  11.47338845594559 -0.25285617621762  0.05434563326333
 6  12.77388455745574 -0.56839335523552 -0.72381292109211
 6  13.95957164496450 -0.11123788698870  0.13047026002600
 6  15.36009135313531 -0.25204781648165 -0.55942899319932
 6  15.72703680588059 -1.63038582438244 -1.18024530433043
 6  16.37793104710471  0.49583396949695  0.37305649034903
 6  17.80810651495150  0.55508363416342 -0.15207348724872
 6  18.77778317781778  1.33360520732073  0.74446680838084
 6  20.25351303110311  1.47194293889389  0.17118672227223
 6  20.41210143904390  2.22826847484748 -1.11071689308931
 6  21.17351522562256  2.02573694309431  1.21850855245525
 1 -3.99716997549755  3.40508889058906  1.53497801880188
 1 -10.01621537323732  3.99073665756576 -0.77397169976998
 1 -10.11633089488949 -2.48673872857286 -1.13184673217322
 1 -2.74313300400040 -1.09420908460846  2.15631286988699
 1 -2.18362800080008  1.58060654925493  1.32465683218322
 1 -2.10810453375338  0.52355784478448  3.89360957435744
 1 -2.88110289648965  2.01266072267227  3.55918048554856
 1 -3.86086706790679  0.41780614831483  3.68657254175418
 1 -1.98840136703670 -1.67414333473347 -0.21036602260226
 1 -2.04071827402740  0.03802589388939 -0.73777887948795
 1 -0.30225731973197  0.44706262976298  1.07783003490349
 1 -0.23156911061106 -1.21038401380138  1.43772664856486
 1 -4.58472063976398  6.16526170127013  0.32425420762076
 1 -5.97322199249925  6.78351815061506  1.77660234943494
 1 -4.56695992479248  5.44244941634163  1.95900957965797
 1 -9.55711321022102  6.07780071617162  0.21570941544154
 1 -8.78929957035703  7.80590918041804 -0.35780518721872
 1 -6.97874291089109  7.48231880108011 -0.40878534913491
 1 -12.22010742354235  2.93138044334433 -2.49800609900990
 1 -13.29170438393839  1.87976361446145 -1.40101362506251
 1 -12.27130409180918  3.50353343874387 -1.05609710771077
 1 -12.30170269836984 -1.56660905910591 -1.11333154105411
 1 -13.42408841244124 -0.19190300330033 -1.37245460246025
 1 -13.36397686388639 -1.40767200640064 -3.78842183988399
 1 -12.39859003300330  0.20208148224823 -3.72235981098110
 1 -11.42224557215722 -1.02540548454845 -3.80839995549555
 1 -9.35226612251225 -4.44130697899790 -1.81960954235424
 1 -8.13464716571657 -5.58554866306631 -0.82832706080608
 1 -9.55936810261026 -4.77774456145614 -0.11608986518652
 1 -3.52718285028503 -3.76645823032303 -0.28865551855185
 1 -1.66378746874687 -4.46892526982698  3.35237192419242
 1 -3.05489067646765 -5.74419506190619  3.70788801090109
 1 -1.58166959345935 -6.07010118721872  2.35292199509951
 1  2.78161283238324 -1.62559224912491 -1.61379545584558
 1  2.48431013121312 -0.02552963456346 -2.06406842664266
 1  4.15325454975498 -0.87766577277728  0.49528190439044
 1  4.04061499779978  1.29269036533653 -2.50706404870487
 1  5.37364066246625  2.28102249244925 -1.70639499409941
 1  5.69964528732873  0.84462479267927 -2.88934023332333
 1  6.69132215551555  1.49372560026003  0.20578807650765
 1  6.15667901590159 -0.15236848574858  0.92688369546955
 1  7.38826256835684 -1.01419249094909 -1.17233136183618
 1  7.64307583858386  0.42296917341734 -1.76945709260926
 1  8.98599469666967  1.10615323182318  0.38649261176118
 1  9.03289111191119 -0.65343369876988  0.97688230683068
 1  10.34117582908291  0.06030079637964 -1.87898172877288
 1  9.28902539893989 -2.30455750005001 -1.59104406560656
 1  11.08928201290129 -2.28797531013101 -1.78451463746375
 1  10.09956743034303 -2.44539616221622 -0.13695578627863
 1  11.40905566776678  0.78662306980698  0.43835579897990
 1  11.54686509620962 -0.86010834893489  0.88713618661866
 1  12.73392912861286 -1.63495035643564 -0.71019935483548
 1  12.72594150015002 -0.11375189618962 -1.85246361016102
 1  13.88718022122212  0.89047230273027  0.40053671417142
 1  14.02822891319132 -0.70460289758976  1.08005317501750
 1  15.25067745984598  0.48036789718972 -1.39727938743874
 1  15.87675967696770 -2.29816654255426 -0.37338493609361
 1  14.59970750255026 -2.01601979557956 -1.72240996139614
 1  16.60891895049505 -1.74795872447245 -1.87626973577358
 1  15.99675488518852  1.54472354505451  0.54898831983198
 1  16.52767446944695 -0.04941133683368  1.40140307200720
 1  18.35388458035804 -0.37005396919692 -0.29094510211021
 1  17.79834991619162  1.11987324582458 -1.12586607050705
 1  18.42946162896289  2.39961186078608  0.83956905780578
 1  18.76871314871487  0.72624623592359  1.71426777837784
 1  20.41544161086108  0.26944338013801 -0.13210546014601
 1  20.18003483678368  3.31026001090109 -1.00049031853185
 1  21.34192030593059  2.26254213211321 -1.51935318931893
 1  19.58364919811981  1.78565996829683 -1.79621004430443
 1  20.98903891919192  1.56870617441744  2.31050049164916
 1  22.22269691019102  2.07232576377638  0.91979624582458
 1  20.95859839243925  3.09178285448545  1.28395432663266

