%nproc=4
%Mem=2GB
# td=(NStates=1) CAM-B3LYP/6-31G(d,p) 

TD

0 1
12 -7.14873654295430  0.63436167686769  0.14730277887789
 6 -4.87344622572257 -1.94204631593159  0.46987262216222
 6 -4.87395670197020  2.84749907720772  1.21787524472447
 6 -9.46853144194419  3.03807620702070 -0.35933726672667
 6 -9.64954598219822 -1.80729090409041 -0.87054516951695
 7 -5.16178896049605  0.43344460496050  0.67690521092109
 6 -4.28490609590959 -0.76328694909491  0.72977488028803
 6 -2.93989495069507 -0.44701997409741  1.19013445464546
 6 -3.02594288348835  1.13459459195920  1.62557536393639
 6 -4.43409149584958  1.52360274067407  1.15968222942294
 6 -2.82831062206221  1.36999348664866  3.19769329542954
 6 -1.91695597649765 -0.64457846794679  0.10685001080108
 6 -0.45147340134013 -0.46803503490349  0.58788737163716
 6  0.57736711511151 -0.82085551765177 -0.50052170397040
 8  0.27264781448145 -1.18863026682668 -1.62635191549155
 8  1.83814083908391 -0.74215912271227 -0.07788200830083
 7 -7.05319292779278  2.62986439373937  0.46480163696370
 6 -6.11021815281528  3.31501245514551  0.95540352435244
 6 -6.50893888358836  4.83728435883588  0.97067483198320
 6 -7.72162275767577  4.80117000370037  0.44240114711471
 6 -8.16308686188619  3.41530182148215  0.19562990219022
 6 -5.69217499869987  5.95147623892389  1.56101262646265
 6 -8.63523273567357  6.05058012601260  0.13356337823782
 6 -8.42938213601360  7.26841292559256 -0.23837810011001
 7 -9.20253528922892  0.62707918621862 -0.41703340864086
 6 -9.90381204020402  1.70167084968497 -0.56635175937594
 6 -11.31839658255826  1.51386237663766 -1.04919966956696
 6 -11.30092861356136  0.10730460776078 -1.20086935313531
 6 -10.05279516321632 -0.46332482058206 -0.80093939683968
 6 -12.25261350345034  2.55678795969597 -1.29747027792779
 6 -12.47389743544355 -0.75882694489449 -1.74222940014001
 6 -12.24466079807981 -1.13596748194819 -3.22098020342034
 7 -7.22657890999100 -1.30601996359636 -0.19885300400040
 6 -8.30260548284829 -2.17912385188519 -0.63268107400740
 6 -7.87740540804080 -3.56269045194519 -0.58923735273527
 6 -6.52416793879388 -3.61575589108911 -0.15802829492949
 6 -6.21123590179018 -2.15767192169217 -0.03091146974697
 6 -8.69208955365536 -4.77938075697570 -0.87024657165717
 6 -5.31357789548955 -4.30308629392939  0.17635613551355
 8 -5.11450281208121 -5.53960661426143  0.00965700050005
 6 -4.17095050505050 -3.27519045314531  0.57998889088909
 6 -3.54728909310931 -3.63586967156716  1.86340752045204
 8 -3.82393604820482 -3.05419865266527  2.85946966226623
 8 -2.62247359525953 -4.59632778527853  1.74493258125813
 6 -2.26854949344935 -5.17147761706171  3.00695203220322
 6  2.77656143274327 -0.77475673337334 -1.11567694259426
 6  4.19881320372037 -0.47144099349935 -0.46913944264426
 6  5.15515912331233  0.30508383288329 -1.00069997019702
 6  4.97175459205921  1.23918845514551 -2.13570066116612
 6  6.54725118271827  0.45649445634563 -0.29795648184818
 6  7.75379311821182 -0.33318520042004 -0.95254492319232
 6  8.96923600600060 -0.02939267276728 -0.13208580278028
 6  10.22755364836484 -0.54325142344234 -0.91441783618362
 6  10.12325951215121 -2.02087142204220 -1.33250491199120
 6  11.49534065116512 -0.32087297789779 -0.07079688098810
 6  12.83332050105011 -0.37995451135114 -0.73968450825083
 6  13.94827051485148 -0.04832159535954  0.15673288628863
 6  15.35368071207121 -0.11440405210521 -0.62385543584358
 6  15.73363746594659 -1.52344513031303 -1.16921420122012
 6  16.47422067606761  0.38245263136314  0.38476766146615
 6  17.81396710101010  0.69132725852585 -0.12858113801380
 6  18.91761716121612  1.27003885068507  0.83933629532953
 6  20.32477015681568  1.21867761236124  0.25560516411641
 6  20.35243547244724  2.18606425442544 -0.95898171957196
 6  21.29363723782378  1.77327169656966  1.36603330493049
 1 -4.15762602110211  3.82877125882588  1.57269179017902
 1 -9.99969372107211  3.92958054195420 -0.61832613521352
 1 -10.38848811061106 -2.62130218491849 -1.07432097959796
 1 -2.67671636233623 -1.06253591729173  2.14288152675267
 1 -2.28599823782378  1.69368785738574  1.08809317581758
 1 -1.82353607690769  1.13688917791779  3.46231644504450
 1 -3.09759454565457  2.30397985458546  3.42960752825283
 1 -3.42685366656666  0.78855322302230  3.80663454795480
 1 -1.99271179807981 -1.75880180058006 -0.18171315731573
 1 -2.16150035223522 -0.02986089478948 -0.90954605620562
 1 -0.15759285328533  0.64298222172217  0.75246749864986
 1 -0.21081703540354 -0.90113308870887  1.48017089298930
 1 -5.10468263596360  6.35496067116712  0.74243602580258
 1 -6.20667533783378  6.76220601940194  1.76914160336034
 1 -5.12972620142014  5.54402957435744  2.46552023072307
 1 -9.74192169106911  5.75640857695770 -0.18017017251725
 1 -9.35805644604460  7.99983857335734 -0.54811421812181
 1 -7.29055409200920  7.58902947214722 -0.25780025062506
 1 -12.01007642044205  2.98875618091809 -2.41574787318732
 1 -13.27529274277428  1.85409104720472 -1.05578910261026
 1 -12.33928088948895  3.41859494489449 -0.46831832983298
 1 -12.19492202030203 -1.70416281448145 -1.24029423732373
 1 -13.46484248784878 -0.41047486048605 -1.56857421442144
 1 -12.99265973217322 -1.81313255245525 -3.71315431313131
 1 -12.29926010001000 -0.26899562546255 -3.88013558855886
 1 -11.29874322192219 -1.56969991399140 -3.66162527802780
 1 -8.99157005290529 -4.84068691699170 -1.83746132753275
 1 -7.93711741274127 -5.69027913611361 -0.66205043314332
 1 -9.55760792659266 -4.83316010301030 -0.25402365856586
 1 -3.58442857485749 -3.55745733023302 -0.17301395439544
 1 -1.54297538753875 -4.54403278057806  3.40884757175718
 1 -3.26133132053205 -5.38303894629463  3.59161638373837
 1 -1.82350377687769 -6.24741891899190  2.63332003490349
 1  2.76649132023202 -1.71951164106411 -1.58115219151915
 1  2.67993969416942 -0.01076815841584 -1.82435445524552
 1  4.26395561986199 -0.97965597179718  0.38445082128213
 1  3.96982791909191  1.26313741004100 -2.47077041934193
 1  5.14433773217322  2.28803319351935 -2.05017937253725
 1  5.67375269806981  0.92297262746275 -2.96046734603460
 1  6.94572759605961  1.61828805650565 -0.24678718101810
 1  6.39087243524352 -0.05872912181218  0.76655766286629
 1  7.53005674777478 -1.53086415811581 -1.05195932463246
 1  7.96550808180818  0.01300817731773 -1.87679782668267
 1  9.21294739193919  1.10936355285529  0.12354631713171
 1  9.03733155595559 -0.65281363676368  0.75254987358736
 1  10.32930464196420 -0.08974420812081 -1.79692352295230
 1  9.34983147954796 -2.16234327862786 -2.14263922512251
 1  10.98301138583858 -2.29573608620862 -1.83118930493049
 1  9.94266173977398 -2.88770039263926 -0.50693278397840
 1  11.34442920512051  0.78577298479848  0.48716067946795
 1  11.55720613031303 -0.84561689978998  0.87402487548755
 1  12.77111284698470 -1.50270713211321 -0.93732206710671
 1  12.91942084808481  0.31680115911591 -1.34334269806981
 1  13.90230173337334  0.90779403490349  0.47856451695170
 1  13.79857594789479 -0.47427986528653  1.16926209590959
 1  15.34990738283828  0.65296515691569 -1.40493015251525
 1  15.42554455545555 -2.11290801670167 -0.24696229382938
 1  14.77776530833083 -1.84304249784979 -1.91573929432943
 1  16.77531559015902 -1.60553448204820 -1.64403651245125
 1  16.14372958265826  1.29510858355836  0.85488890989099
 1  16.70913261526153 -0.22114851055106  1.21818475017502
 1  18.15992518441844 -0.29141610541054 -0.57414342194219
 1  17.58504858605860  1.39775103360336 -0.91803528742874
 1  18.49665834863486  2.44999689928993  1.01858695959596
 1  18.81280755815581  0.83385699699970  1.61777812941294
 1  20.67639770647065  0.23303973977398  0.03458120852085
 1  20.43583041634163  3.30044902980298 -0.37765803530353
 1  21.38737485138514  2.03496937483748 -1.68674992899290
 1  19.48880971417142  2.07572897519752 -1.62342276557656
 1  21.23374338963896  1.20668997279728  2.16680612221222
 1  22.47013165366537  1.61792032323232  0.96441070727073
 1  21.02930546314631  2.79328300450045  1.60901683288329

