%nproc=4
%Mem=2GB
# td=(NStates=1) CAM-B3LYP/6-31G(d,p) 

TD

0 1
12 -7.04288595789579  0.57513575427543  0.15140318891889
 6 -4.81901078217822 -1.91820393169317  0.60529616451645
 6 -4.73293259955996  2.85363969126913  1.18947240444044
 6 -9.37002159095909  3.19754215361536 -0.38069940294029
 6 -9.42581360896090 -1.73670384538454 -0.83976209120912
 7 -5.04415719731973  0.42867412791279  0.64966248664866
 6 -4.36429403470347 -0.72264288468847  0.81506340914091
 6 -2.91105206640664 -0.47132240434043  1.32678812001200
 6 -3.04979526872687  1.09722085458546  1.66290909730973
 6 -4.24056214291429  1.50836121652165  1.14300056125613
 6 -2.98804659565957  1.14275076237624  3.25080860696070
 6 -1.88800308120812 -0.69695370547055  0.22553187898790
 6 -0.35206346034603 -0.63979221062106  0.62796137903790
 6  0.49055843424342 -0.62342577467747 -0.59776142794279
 8  0.11373192289229 -0.80021142494249 -1.76353563386339
 8  1.78289531453145 -0.47431233803380 -0.18916313641364
 7 -7.01861947044705  2.64352575987599  0.29666482328233
 6 -6.00401753275328  3.38579953385339  0.73398138213821
 6 -6.34823281298130  4.77660829122912  0.88119588408841
 6 -7.59681027642764  4.85797568426843  0.36694360136014
 6 -8.09238979217922  3.48728902020202  0.05613595279528
 6 -5.38443422462246  5.82239333063306  1.26989351455146
 6 -8.50550976337634  6.06175124312431  0.26551657355736
 6 -8.17919711751175  7.41913799809981  0.13421915961596
 7 -9.06737177287729  0.64957143544354 -0.53478518381838
 6 -9.75381704070407  1.78035871847185 -0.60771589578958
 6 -11.12295703860386  1.54105509590959 -1.01551630123012
 6 -11.13708222892289  0.14216809410941 -1.21910117631763
 6 -9.84288417211721 -0.38704719281928 -0.90157946084608
 6 -12.27411565366537  2.45158743964396 -1.33341387228723
 6 -12.25590563626363 -0.68581964416442 -1.62631780898090
 6 -12.30972730473047 -1.16190007520752 -3.20673877927793
 7 -7.25224147624763 -1.37716707830783 -0.17250036873687
 6 -8.16879210151015 -2.17288322782278 -0.53548135403540
 6 -7.77910557805781 -3.58999318221822 -0.47932636163616
 6 -6.48442396439644 -3.52807712321232 -0.11734422652265
 6 -6.15674045224522 -2.16229238373837  0.08448006940694
 6 -8.64629497419742 -4.79640245914591 -0.85756530353035
 6 -5.27159369706971 -4.34519050435043  0.15108360826083
 8 -5.22640400220022 -5.52375502910291  0.23386942174217
 6 -4.18010142014201 -3.36689962406241  0.64104499649965
 6 -3.60122448664866 -3.74835091969197  1.94364554425443
 8 -3.70695435003500 -3.25797903070307  3.02836655195520
 8 -2.78308965686569 -4.85782393489349  1.77079516751675
 6 -2.36803944244424 -5.41916238553855  3.02050338733873
 6  2.74421819841984 -0.63209246694669 -1.30172554745475
 6  4.13448677107711 -0.54282813221322 -0.67594012271227
 6  5.08003161056106  0.26066939143914 -1.10066996719672
 6  4.81334875147515  1.15043958025803 -2.37960505160516
 6  6.35392184978498  0.40358916581658 -0.43490017621762
 6  7.59080681958196 -0.24181606350635 -1.15795546424642
 6  8.80101918431843 -0.09117885138514 -0.25453804800480
 6  10.13605449844984 -0.56517361566157 -1.03859025342534
 6  10.02308949514951 -2.05794512941294 -1.42626428792879
 6  11.38305942304230 -0.26672756335634 -0.19882968426843
 6  12.74350151915191 -0.42643915981598 -0.82272281208121
 6  13.91351703950395 -0.25174193739374  0.15247246024602
 6  15.25949129312931 -0.27226983868387 -0.49435248554856
 6  15.79690379257926 -1.62379516531653 -0.93636091589159
 6  16.36793004700470  0.41375576167617  0.49016820152015
 6  17.79346505080508  0.72555068086809 -0.13146142604260
 6  18.67567296679668  1.36363821062106  0.90225258695870
 6  20.12288996879688  1.47424316891689  0.28271787538754
 6  20.18670889978998  2.43008865686569 -0.88956477787779
 6  20.95564343844385  1.92523689308931  1.56007270887089
 1 -3.97940819931993  3.48569695139514  1.45498001900190
 1 -10.15182893459346  3.73604118801880 -0.55011931453145
 1 -10.03798306010601 -2.42967302200220 -1.32144569206921
 1 -2.65380407110711 -1.03096275997600  2.16960419901990
 1 -2.33048268626863  1.67564605320532  1.21356572307231
 1 -2.01560528382838  0.49119460846085  3.77747796119612
 1 -3.28995378157816  2.19667912451245  3.49619418691869
 1 -3.76516749794980  0.51605597329733  3.97029091359136
 1 -1.81202372927293 -1.76940286068607 -0.22944793079308
 1 -2.10236443864386  0.01502359365937 -0.57228232983298
 1 -0.05457255125513  0.24268219171917  1.03450570247025
 1 -0.38401435513551 -1.37929090449045  1.50273314921492
 1 -4.82758492619262  6.34831000610061  0.30613239543954
 1 -6.08660333063306  6.59768956775677  1.48298298749875
 1 -4.54794802360236  5.42366753815381  1.85806948564856
 1 -9.54028152705271  5.56578951505151  0.50266811131113
 1 -8.84266490689069  8.24962355185519  0.18465905920592
 1 -7.05193022962296  7.63618418761876 -0.13796826742674
 1 -12.11240665346535  3.13282058735874 -2.38827512591259
 1 -13.12911812531253  1.68284392249225 -1.47185070877088
 1 -12.59825678707871  3.18339142454245 -0.44574607260726
 1 -12.36833936203620 -1.61344374257426 -0.99646985488549
 1 -13.19411541514151 -0.13338715171517 -1.43520087708771
 1 -13.12979344554455 -1.86103734293429 -3.38711170887089
 1 -12.39879005300530 -0.21112983888389 -3.72270984598460
 1 -11.31925527312731 -1.70784372837284 -3.59029814531453
 1 -9.45001589748975 -4.48576142444244 -1.70260784218422
 1 -8.15336903790379 -5.80161026922692 -1.02292652075207
 1 -9.21369353515352 -4.89618640564056  0.04683642744274
 1 -3.31090122212221 -3.51648323282328  0.02918626562656
 1 -1.52412350235023 -4.49764814211421  3.22291897889789
 1 -3.13358854625463 -5.74937557995800  3.78620584268427
 1 -1.74910633713371 -6.28579275637564  2.81008771167117
 1  2.55290996209621 -1.55016470637064 -1.67746182248225
 1  2.59416111631163  0.07840075847585 -2.15611763156316
 1  4.46888611291129 -1.06750475667567  0.24608698489849
 1  3.82507344364436  1.14177527382738 -2.68655199749975
 1  4.92778607700770  2.20482487268727 -2.04422877747775
 1  5.68872419521952  0.93455378557856 -3.17439873917392
 1  6.73742676597660  1.59382561026103 -0.13822632493249
 1  6.17717106510651 -0.10885413431343  0.59821082818282
 1  7.33192693479348 -1.20990206190619 -1.38642277097710
 1  7.69161069206921  0.29338621512151 -2.13092323922392
 1  8.87595369256926  0.90830344684468  0.32729669216922
 1  8.71874969776978 -0.74206256165617  0.55319993859386
 1  10.10577228872887  0.03143791009101 -2.02012584318432
 1  8.99209570597060 -2.07839488378838 -2.02569753095310
 1  10.87403048774877 -2.42619913251325 -1.85323150915091
 1  10.02817029062906 -2.61661328392839 -0.67126921762176
 1  11.27526228842884  0.83734814231423  0.27234919831983
 1  11.62690310001000 -1.19573191129113  0.40464793779378
 1  12.64472020772077 -1.55378223962396 -1.38462679757976
 1  12.86980588658866  0.15865534453445 -1.80254861866187
 1  13.62537404060406  0.74123737923792  0.87533419391939
 1  13.69845593589359 -1.12079451675168  1.01599676937694
 1  15.17757014911491  0.25801566196620 -1.25166482598260
 1  15.52766476747675 -2.25064179007901  0.00218262066207
 1  15.25899343114311 -2.36735492909291 -1.68676639703970
 1  17.02537059565957 -1.58462239083908 -0.95557766656666
 1  15.80208541824182  1.41795086778678  0.96408982998300
 1  16.39553125512552 -0.23338973467347  1.56834976667667
 1  18.09014820672067 -0.35972293609361 -0.50231623922392
 1  17.62603268446845  1.24503576207621 -1.05682916681668
 1  18.34936361916192  2.48790068966897  1.24040914181418
 1  18.76561283868387  0.91074468576858  1.82133848544854
 1  20.50662072877288  0.48773520932093 -0.14260651025102
 1  20.00427726102610  3.36697568246825 -0.61791206070607
 1  21.37440355425543  2.48053393129313 -1.15067632163216
 1  19.61170200340034  2.12550395269527 -1.65753617691769
 1  20.73354336963696  1.37710701450145  2.52015145674567
 1  22.09218385888589  1.83267179837984  1.28806307250725
 1  20.72791532413241  2.88042171837184  1.96358228942894

