%nproc=4
%Mem=2GB
# td=(NStates=1) CAM-B3LYP/6-31G(d,p) 

TD

0 1
12 -7.20784245354535  0.64531277197720  0.14118216681668
 6 -4.84582346344634 -1.94945705700570  0.52022765766577
 6 -4.88178748504850  2.83846817411741  1.14981843904390
 6 -9.55142973177318  3.00340273967397 -0.26606793979398
 6 -9.52992402000200 -1.75375555055506 -0.82853096809681
 7 -5.08634141574157  0.49578083858386  0.67419493989399
 6 -4.32567017231723 -0.68492911331133  0.85198710151015
 6 -2.92664362556256 -0.34854012611261  1.39604504570457
 6 -3.07054734393439  1.13325445794579  1.72595540194019
 6 -4.37275536223622  1.49633001340134  1.16268252945295
 6 -2.97272506350635  1.37764425172517  3.18195172127213
 6 -1.93844812571257 -0.57160117021702  0.22162148794879
 6 -0.40403865786579 -0.36831506290629  0.49492807570757
 6  0.47365674407441 -0.64167759985999 -0.65021667346735
 8  0.27712826252625 -0.93601500530053 -1.76658593889389
 8  1.75686271127113 -0.35819072587259 -0.23283750385039
 7 -7.14862247074707  2.62684409170917  0.36085124192419
 6 -6.10061719271927  3.32853380728073  0.86035401940194
 6 -6.49747773747375  4.75343597399740  0.74779254375438
 6 -7.82114270967097  4.92197208390839  0.35217212421242
 6 -8.23609416261626  3.47121741304130  0.14558489768977
 6 -5.62742852405241  5.92706379767977  1.27490401560156
 6 -8.82208142054206  5.95971103910391  0.34970499239924
 6 -8.40444964276428  7.29444552885289  0.12457819551955
 7 -9.13588862456246  0.67958443674367 -0.32595430073007
 6 -9.90015167416742  1.75981666426643 -0.55252037623762
 6 -11.27821256415642  1.39127011741174 -1.06586133573357
 6 -11.30600912161216 -0.03216933963396 -1.17129639583958
 6 -9.97542742644264 -0.42970145824582 -0.82105140804080
 6 -12.41923016511651  2.30007228812881 -1.33399393029303
 6 -12.40352039773977 -0.89936099829983 -1.76399157635764
 6 -12.22146847884789 -1.11962584778478 -3.23258136353635
 7 -7.26386263836384 -1.37214657625763 -0.06486960566057
 6 -8.23956917921792 -2.24345028452845 -0.50990879677968
 6 -7.69267693519352 -3.57488167106711 -0.67426585558556
 6 -6.41615713771377 -3.47479179467947 -0.22859535163516
 6 -6.22083686188619 -2.19290544504450  0.15386700810081
 6 -8.51880222492249 -4.80845366426643 -0.99464901190119
 6 -5.30784732243224 -4.33896988228823  0.17845634553455
 8 -5.14272563436344 -5.52661531513151  0.18897493229323
 6 -4.07895130513051 -3.25373830793079  0.49882077407741
 6 -3.43744810901090 -3.57710379497950  1.88884006370637
 8 -3.66038969356936 -3.08717194999500  3.02067578287829
 8 -2.54748609650965 -4.70380853335334  1.72488057605761
 6 -1.97444008250825 -5.29607007630763  2.86826816381638
 6  2.75553933053305 -0.59171842954295 -1.26007138203820
 6  4.11979530193019 -0.36189003840384 -0.69755228392839
 6  5.15094870227023  0.42178550305031 -1.12374227442744
 6  5.07669508610861  1.32273680998100 -2.26635372647265
 6  6.42352881048105  0.39918872577258 -0.23520020622062
 6  7.69265700460046 -0.08766064796480 -1.06869653835384
 6  8.99659874227423 -0.23704343784378 -0.15510810501050
 6  10.18431932493249 -0.58199529782978 -0.88913530793079
 6  10.11828901510151 -1.99892922782278 -1.41343300480048
 6  11.47679879697970 -0.40404129472947 -0.06766656795680
 6  12.84630179917992 -0.52336885278528 -0.72946348614861
 6  13.99465515331533 -0.19277604080408  0.21816902990299
 6  15.35901124512451 -0.33297590929093 -0.49566261656166
 6  15.58209231143114 -1.81340412621262 -0.74516179597960
 6  16.50202345634563  0.21876626272627  0.44172335703570
 6  17.81077678197820  0.62489061486149 -0.23293157305731
 6  18.76865226472647  1.23036488328833  0.81458382008201
 6  20.35778345814581  1.25623136773677  0.25893549714971
 6  20.37747797669767  2.20675632363236 -0.99544536593659
 6  21.08430630473048  1.88675304470447  1.42655935753575
 1 -4.24433469196920  3.70829921162116  1.39288380938094
 1 -10.32762651435144  3.67799538343834 -0.34116841944194
 1 -10.16595585738574 -2.43840389508951 -0.97577112461246
 1 -2.64884357505751 -0.74936460016002  2.29775701430143
 1 -2.21375101310131  1.63877236583658  1.25434980148015
 1 -2.06618034133413  0.95722121112111  3.97275748914892
 1 -2.93940872707271  2.42812226882688  3.49954452195220
 1 -3.85810679187919  0.95323969166917  3.90674455895590
 1 -2.11244377127713 -1.29562548294829 -0.55537052305230
 1 -2.48008221042104  0.07534962626263 -0.41822692429243
 1 -0.00424751875188  0.70185810931093  0.82963521542154
 1 -0.15561151485148 -1.22622559795980  1.27145002090209
 1 -5.06499866756676  6.52557773287329  0.41270305250525
 1 -6.17721239153915  6.76824662346235  1.62574726392639
 1 -4.88412164096410  5.60210538193819  1.99177285598560
 1 -9.84130162906291  5.74381731783178  0.42090993549355
 1 -9.20990163056306  8.00098868836884  0.14816540984098
 1 -7.23184822142214  7.45153572277228 -0.08420289088909
 1 -12.17090250305031  3.14477178247825 -2.11416771517152
 1 -13.26993220672067  1.68942458055806 -1.80859438313831
 1 -12.75350231163116  2.86948003340334 -0.51069256725673
 1 -12.25226775487549 -1.82116451465147 -1.11380158805881
 1 -13.43881988558856 -0.49395320832083 -1.40955831283128
 1 -13.06340680688069 -1.61309254845485 -3.71549454715472
 1 -11.95395556955696 -0.13324205010501 -3.65969354435444
 1 -11.25042839043904 -1.75867881188119 -3.47301641714171
 1 -8.86380727662766 -4.69400224852485 -2.09813739513951
 1 -8.00094379537954 -5.78032814101410 -0.79173340144014
 1 -9.21693385918592 -4.77210399739974 -0.31106936313631
 1 -3.26986711871187 -3.09428101260126 -0.20600725372537
 1 -1.30588167816782 -4.46849522682268  3.39688637563756
 1 -2.86603179057906 -5.49836047844784  3.48616583868387
 1 -1.44772619911991 -6.31362553965397  2.47017372027203
 1  2.58028269936994 -1.82871256115612 -1.45667974427443
 1  2.49246094629463 -0.12542962456246 -2.18125014481448
 1  4.34656388068807 -1.07509551575157  0.20144252045205
 1  3.99580051635163  1.31847294359436 -2.74570791309131
 1  5.38902220062006  2.46485087528753 -1.98090244484448
 1  5.90727605040504  0.93897422762276 -3.01870316961696
 1  6.74326735003500  1.28709493719372  0.45357285498550
 1  6.03551689968997 -0.46624987388739  0.48202921002100
 1  7.41986572867287 -0.98725979767977 -1.60796492519252
 1  8.10043157415742  0.43101997849785 -1.96466661356136
 1  8.92792889008901  0.78011062756276  0.16755071757176
 1  8.61181900470047 -1.10009836523652  0.58103272187219
 1  10.32766447794780  0.31368613491349 -1.72572640324032
 1  9.19256575297530 -2.21345839013901 -2.00592555375538
 1  10.99677276197620 -2.44098061066107 -2.05754194019402
 1  10.07577505110511 -2.52620424302430 -0.66680877157716
 1  11.13941870407041  0.69742414991499  0.37567953135314
 1  11.32902331203120 -1.11878421652165  0.79650712371237
 1  12.94723045874587 -1.68879574097410 -1.14858319321932
 1  12.88310721672167  0.03506298529853 -1.73940230403040
 1  13.83143464666467  0.97981123662366  0.49863652415242
 1  13.80288637893789 -0.60529296659666  1.22417758745875
 1  15.33696608870887  0.28183804420442 -1.60137979747975
 1  15.55354735573557 -2.36842356825683  0.19910231263126
 1  14.98368590039004 -2.30627882148215 -1.45101282168217
 1  16.63945200380038 -1.94008793739374 -1.08423053185319
 1  16.10617582728273  1.13018209090909  1.07090051105111
 1  16.49597129912991 -0.57383377907791  1.28020095179518
 1  18.35439463136314 -0.18583554735474 -0.66347235483548
 1  17.36367644884488  1.14183544204420 -1.01791527542754
 1  18.60229891269127  2.24470637023702  1.00772587348735
 1  18.66608288568857  0.63055666696670  1.72174852645265
 1  20.66838690539054  0.28919535533553  0.04051180158016
 1  19.92910974427443  3.23632261716172 -0.77147741724172
 1  21.41824793869387  2.47242312021202 -1.47637889188919
 1  19.99037987118712  1.63448485078508 -1.91854227752775
 1  20.98013802910291  1.27401670547055  2.38257769936994
 1  22.25357999849985  1.78076660786079  1.15963022922292
 1  20.82511504410441  2.98985266146615  1.54607053825383

