%nproc=4
%Mem=2GB
# td=(NStates=1) CAM-B3LYP/6-31G(d,p) 

TD

0 1
12 -7.13075474477448  0.61879011971197  0.06700474907491
 6 -4.82442132323232 -1.95868798009801  0.45355098999900
 6 -4.76046535283528  2.83379770707071  1.08998245544554
 6 -9.39758434723472  3.09064146354635 -0.35207654065407
 6 -9.43986501410141 -1.66774694969497 -0.88404651965197
 7 -5.04049683128313  0.39107036753675  0.76218373877388
 6 -4.35754335963596 -0.71143176357636  0.87402930573057
 6 -2.97803876507651 -0.34804007610761  1.23770921212121
 6 -3.02531282048205  1.14382551505151  1.69846265266527
 6 -4.40940902760276  1.63692407280728  1.24460072127213
 6 -2.87148493949395  1.34307079437944  3.12535606170617
 6 -1.96100038093809 -0.62555656575658  0.01426075187519
 6 -0.51048930293029 -0.57189542094209  0.48318690159016
 6  0.43144252265226 -0.78177160926093 -0.67999965176518
 8  0.10698124782478 -1.06755815961596 -1.86248552885289
 8  1.61270829582958 -0.53855876267627 -0.24147836793679
 7 -7.20844845334533  2.60813222052205  0.39998515531553
 6 -6.10696782778278  3.34160511441144  0.79530751475148
 6 -6.51803979367937  4.73905453585358  0.85707347184718
 6 -7.88364896029603  4.76713660036004  0.48689559655966
 6 -8.20287084028403  3.42531282258226  0.22437277647765
 6 -5.65060084128413  5.83272436373637  1.52331885708571
 6 -8.70609982238224  5.94127919591959  0.46769679157916
 6 -8.27630682848285  7.16738282258226  0.20344608230823
 7 -9.10603563926393  0.67777425572557 -0.51309301460146
 6 -9.86228788778878  1.84315499809981 -0.62697782198220
 6 -11.17569231213121  1.57107809820982 -1.12218696829683
 6 -11.20266878757876  0.18249212651265 -1.30506977317732
 6 -9.94354423812381 -0.36882537063706 -0.93600290319032
 6 -12.25749399149915  2.56988926982698 -1.42095262616262
 6 -12.35897594329433 -0.69317037923792 -1.88937411461146
 6 -12.21109744174417 -1.18701258645865 -3.27028513391339
 7 -7.19752600470047 -1.37152651425143 -0.06517963666367
 6 -8.33466868916892 -2.21198713821382 -0.52269007490749
 6 -7.88985665316532 -3.54753893679368 -0.47723615261526
 6 -6.51892741474147 -3.47318163366337 -0.16565905800580
 6 -6.15975075327533 -2.21608776327633  0.14109573097310
 6 -8.64844518921892 -4.83119593849385 -0.68702824982498
 6 -5.21937847554755 -4.31899788508851  0.13974247414741
 8 -5.12384374617462 -5.48292094569457  0.23031906670667
 6 -4.13106651665166 -3.29990292439244  0.59584047604760
 6 -3.62241660586059 -3.56585266986699  1.86554773447345
 8 -3.78195184978498 -3.11717495029503  2.93734745004500
 8 -2.75710705860586 -4.71525967846785  1.77612570057006
 6 -2.02352499099910 -5.15423589288929  2.93916525352535
 6  2.72267604420442 -0.77688694639464 -1.22894826972697
 6  4.04204752715272 -0.57132098149815 -0.55995852455246
 6  5.09867347474747  0.14666799129913 -0.96871677187719
 6  5.16109352595259  0.85473000930093 -2.32214930603060
 6  6.35099155675567  0.15288409530953 -0.19667635383538
 6  7.70131787068707 -0.24324620652065 -0.88329799849985
 6  8.97871695409541 -0.17426716021602 -0.05673826802680
 6  10.25431632463246 -0.54789188748875 -0.89657605200520
 6  10.11579876607661 -2.10996033093309 -1.39852151365137
 6  11.48441955905591 -0.24330522112211 -0.11725152645264
 6  12.85488265726573 -0.57306382228223 -0.71595213501350
 6  13.98005369316932  0.01329456625663  0.03384059705971
 6  15.38617396139614 -0.11254386608661 -0.62140519081908
 6  15.75073917611761 -1.60306309210921 -1.05698297809781
 6  16.48032128612861  0.51315570167017  0.35445463016302
 6  17.83730943524353  0.67264539033903 -0.25390367026703
 6  18.78083348284829  1.24838668546855  0.71257361906191
 6  20.34599227902790  1.38019376397640  0.37561716531653
 6  20.51897212611261  2.22176782478248 -0.91126694809481
 6  21.04261213531353  2.06550091949195  1.52331903350335
 1 -4.24189444794479  3.57373575527553  1.41659618061806
 1 -10.08544229592959  3.95662324622462 -0.39760406300630
 1 -10.11329059085909 -2.47803785848585 -1.21144469196920
 1 -2.81802049274927 -1.07465712941294  2.14834207280728
 1 -2.26461609960996  1.77378586718672  1.13122748924892
 1 -1.83337706100610  1.05366085508551  3.34584479787979
 1 -2.87679246544654  2.47313677027703  3.34239880738074
 1 -3.63827480868087  1.05804017171717  3.89578346284628
 1 -2.16454898179818 -1.74430035043504 -0.28076306230623
 1 -2.39160336253625  0.07609970127013 -0.77211231283128
 1 -0.16409350335034  0.36074399789979  0.83272552445245
 1 -0.31904785848585 -1.44496747214721  1.37152002790279
 1 -4.81421358905891  6.47029220432043  0.82676445864586
 1 -6.23940861116112  6.56141594039404  2.00186487568757
 1 -4.99171240004000  5.54514968636864  2.41839551825182
 1 -9.76954445334533  5.79796273237324  0.42428027252725
 1 -9.20767140754075  7.83125171467147  0.20112070537054
 1 -7.26404144074407  7.69607017621762  0.04707023642364
 1 -12.02175758855886  3.56374367966797 -2.02696899529953
 1 -13.14522973647365  2.21526716481648 -1.88686220992099
 1 -12.65650261166117  3.12617570297030 -0.37060855885589
 1 -12.35403793189319 -1.45569796799680 -1.18218842674267
 1 -13.13905990959096  0.11359754675468 -1.83143050005001
 1 -12.94826529272927 -1.53940517971797 -3.56702970067007
 1 -11.98812898689869 -0.38587731363136 -3.98967654265427
 1 -11.23436678427843 -1.79817276127613 -3.44987410291029
 1 -8.98373926982698 -4.91225407370737 -1.70506808820882
 1 -8.13751745274527 -5.78722883108311 -0.25649987808781
 1 -9.70400256605661 -4.48237502450245 -0.25940419661966
 1 -3.34041417341734 -3.52797438193819 -0.12484913791379
 1 -1.32223331333133 -4.54138251555155  3.30399708670867
 1 -2.82625781318132 -5.59421006340634  3.78818604070407
 1 -1.39474090059006 -5.87456163326333  2.59171587448745
 1  2.74258892999300 -1.76506619651965 -1.52781685798580
 1  2.71844354455446  0.02860577897790 -2.15832785258526
 1  3.99158838313831 -1.11527953415341  0.49198157435744
 1  4.14904584088409  1.12758385468547 -2.69817315961596
 1  5.61924522292229  1.80160455065507 -2.25081943654365
 1  5.68028335113511  0.37863819401940 -3.01591289058906
 1  6.69995301860186  1.10636686438644 -0.13964646694670
 1  6.15834918291829 -0.45771902080208  0.86822782988299
 1  7.74053779587959 -1.36135720742074 -1.35127925662566
 1  7.80564209520952  0.35236211271127 -1.74645479237924
 1  8.98766486368637  0.93397601410141  0.39824378687869
 1  8.97799562236224 -0.81149950535053  0.77142176077608
 1  10.38661037253725  0.16562132843284 -1.70911474207421
 1  9.34487098349835 -2.26824386868687 -2.01685664686469
 1  10.93458654335434 -2.40164667726773 -2.00404659065907
 1  10.23618109170917 -2.79120074267427 -0.59791188188819
 1  11.46944170637064  0.63404781228123  0.05106707010701
 1  11.36114652435243 -0.84001633973397  0.72751022402240
 1  12.87074280998100 -1.70967782918292 -0.86122445734573
 1  12.84540344634464  0.00003948294829 -1.73064142794279
 1  13.97925942914292  0.90448370387039  0.53932059255926
 1  13.97439352965296 -0.44269670697070  0.90001517121712
 1  15.28175056715672  0.34647450785079 -1.37494715421542
 1  15.71534353535354 -2.04856158205821 -0.12922051965197
 1  15.01387891969197 -2.00170836443644 -1.78028574897490
 1  16.75593365196520 -1.69419334793479 -1.50208231703170
 1  15.99796500620062  1.48141721442144  1.08481190219022
 1  16.50366206820682 -0.22420881658166  1.16377930963096
 1  18.17696688858886 -0.30799776357636 -0.51729773737374
 1  17.87361744294429  1.22458371687169 -1.13826731063106
 1  18.45456413921392  2.46239813941394  0.91026612751275
 1  18.70065634303430  0.92257586888689  1.76284263586359
 1  20.73083315001500  0.38677511331133  0.34548229862986
 1  20.25415224852485  3.16185517041704 -0.76763703320332
 1  21.48952506640664  2.46126200410041 -1.06840809480948
 1  19.99477031023102  1.69994139643964 -1.79126955025503
 1  20.81977199249925  1.71170047384738  2.49989943154315
 1  22.28801344184419  2.15563409460946  1.40136440264026
 1  20.66089862246225  3.25950962716272  1.50948687988799

