%nproc=4
%Mem=2GB
# td=(NStates=1) CAM-B3LYP/6-31G(d,p) 

TD

0 1
12 -7.19445111441144  0.64085232593259  0.19688773737374
 6 -4.80998988008801 -1.90978308960896  0.46258189308931
 6 -4.83451275757576  2.86660098739874  1.20163362056206
 6 -9.47303189198920  3.07383978337834 -0.25969730273027
 6 -9.52973400100010 -1.81249142414241 -0.95199331433143
 7 -5.14314709630963  0.54850611111111  0.81216873727373
 6 -4.30440804610461 -0.64601522192219  0.81434333713371
 6 -2.91981294249425 -0.34737000910091  1.16531197239724
 6 -2.98559884908491  1.14936606910691  1.75414822122212
 6 -4.38102618931893  1.53872425282528  1.24843110431043
 6 -2.79630742174217  1.36157264456446  3.23986751285128
 6 -2.02919720062006 -0.51864587468747 -0.04235490969097
 6 -0.53057131113111 -0.38399663106311  0.44865344824482
 6  0.45556493489349 -0.61316474857486 -0.70081173297330
 8  0.16496704640464 -0.96921832563256 -1.75699497979798
 8  1.69179620462046 -0.51055596239624 -0.19385360546055
 7 -7.16984459295930  2.60842224952495  0.35579073587359
 6 -6.18267539853985  3.36504745864586  0.83952193619362
 6 -6.52468045774578  4.77601823222322  0.97373513801380
 6 -7.81249184458446  4.86338622532253  0.48229513651365
 6 -8.19226978017802  3.49330962226223  0.13193353255326
 6 -5.71357713891389  5.95811690299030  1.57581410661066
 6 -8.64450366276628  5.98606367436744  0.21762178407841
 6 -8.21344054185418  7.22200828512851  0.17164290199020
 7 -9.12835787148715  0.62369884818482 -0.48571027632763
 6 -9.96095775477548  1.69823050565056 -0.49275439963996
 6 -11.19684442734273  1.48543953435344 -1.01416616621662
 6 -11.21455997669767  0.08177205450545 -1.31103036923692
 6 -9.93191307500750 -0.45452394049405 -0.84220352325232
 6 -12.24088233033303  2.46113839473947 -1.39198972987299
 6 -12.23845389108911 -0.81161222342234 -1.94247942514251
 6 -12.11918825082508 -0.99457334253425 -3.42136024142414
 7 -7.25445169726973 -1.43055241684168 -0.19220233893389
 6 -8.21556677897790 -2.28959489898990 -0.51943974987499
 6 -7.78354602210221 -3.65115929882988 -0.54247267626763
 6 -6.44190971297130 -3.51530584608461 -0.15666815891589
 6 -6.14082886108611 -2.14854100860086  0.01000262166217
 6 -8.55454579927993 -4.92395521442144 -0.89467901490149
 6 -5.27702424012401 -4.32318830413041  0.27397589748975
 8 -5.12025338713871 -5.51979463306331  0.18512454725473
 6 -4.14607801780178 -3.22135506960696  0.57449834183418
 6 -3.39687405160516 -3.52532861746175  1.78602978267827
 8 -3.55958961356136 -3.05973920672067  2.90688440374037
 8 -2.56400774867487 -4.53990214271427  1.66180426842684
 6 -1.99268190669067 -5.08057852715272  2.91538287528753
 6  2.79777355395540 -0.75179443714371 -1.25702107700770
 6  4.11568489088909 -0.61875572497250 -0.56249877857786
 6  5.16150975837584  0.14803812831283 -0.97910781098110
 6  5.07861527812781  1.15185972227223 -2.09036612771277
 6  6.46243270087009  0.12516132303230 -0.10332701890189
 6  7.62751048994899 -0.24037591949195 -0.95623529222922
 6  8.88247733013301 -0.12885261876188 -0.08995158935894
 6  10.14545543854385 -0.76439353765377 -0.81270766516652
 6  10.14100128632863 -2.21790112501250 -1.23556521802180
 6  11.40830194729473 -0.33827471807181  0.10566076477648
 6  12.70942811181118 -0.59787630353035 -0.70332087188719
 6  13.90413610141014 -0.23365012821282  0.19870708370837
 6  15.36899224322432 -0.30569318101810 -0.42941599189919
 6  15.77136123832383 -1.67494027982798 -0.92924020382038
 6  16.33791704570457  0.38510289638964  0.50978016271627
 6  17.71709741404140  0.63106123192319 -0.24346262616262
 6  18.66115151465146  1.43810565736574  0.71060342204220
 6  20.16342402220222  1.46719246384638  0.18616822042204
 6  20.16209643854385  2.27770341834183 -1.17096291769177
 6  21.15971384548455  1.98323269266927  1.17207390899090
 1 -4.03726398489849  3.62483086478648  1.35769029002900
 1 -10.42736648834884  3.76304388828883 -0.29618392099210
 1 -10.13359262106211 -2.49383943864386 -1.07292083958396
 1 -2.57012570327033 -1.14609427312731  1.83853109170917
 1 -2.16346598459846  1.63919240784078  1.13602796929693
 1 -1.64009773307331  1.13663915291529  3.35762597599760
 1 -2.99327411361136  2.46600605720572  3.35592015951595
 1 -3.31218219941994  0.74810917861786  3.99057294179418
 1 -1.98329085598560 -1.64575049544954 -0.55899088508851
 1 -2.45119932213221 -0.04034194289429 -0.92054715631563
 1 -0.33587068106811  0.41478940244024  1.08377062896290
 1 -0.27766372007201 -1.06292926832683  1.32614549044905
 1 -4.97783995169517  6.38114328942894  0.78142992519252
 1 -6.31792646294629  6.59066886568657  2.00285497469747
 1 -4.87813104190419  5.63760893229323  2.17351102980298
 1 -9.80855835473547  5.89297223332333  0.27645549004900
 1 -8.90975161556156  8.13029161866187 -0.04288369506951
 1 -7.16619165576558  7.37073764296430  0.02136766616662
 1 -11.82747816061606  2.94033133843384 -2.27867416581658
 1 -13.25324053755375  2.13270890899090 -1.71543506720672
 1 -12.18794575597560  3.31411449684968 -0.52922442044204
 1 -12.30900342844284 -1.77338973717372 -1.33376358425843
 1 -13.25843184678468 -0.32708652165217 -1.59030638763876
 1 -12.98218868506851 -1.52079331853185 -3.69893289098910
 1 -12.04428460246025 -0.18760748664867 -3.87082465746575
 1 -11.26816016361636 -1.53279622362236 -3.79229834533453
 1 -8.43385428132813 -4.84101694999500 -2.00647822922292
 1 -7.87545124612461 -5.79131924012401 -0.43775800390039
 1 -9.66631879767977 -4.80299708670867 -0.54820307650765
 1 -3.24076420842084 -3.30038162266227 -0.22797945094509
 1 -1.60899198919892 -4.14706308360836  3.36697338433843
 1 -2.80153534093409 -5.50866150855085  3.60957817991799
 1 -1.17572899939994 -5.82449662676268  2.52006870977098
 1  2.66772144324432 -1.90751044094409 -1.54699877617762
 1  2.82208390859086 -0.12325940754075 -2.05650767056706
 1  4.23226245054506 -1.29056706290629  0.36829920612061
 1  4.08512944924492  1.21583267956796 -2.65932927522752
 1  5.53022632103210  1.99831422162216 -1.73606796139614
 1  5.71314663746375  0.88508883908391 -2.90219151845185
 1  6.48661168446845  1.23781000870087  0.17392489018902
 1  6.37158050605060 -0.50899414831483  0.72524353145315
 1  7.40060380248025 -1.12495356705671 -1.50797492619262
 1  7.69872140314031  0.39548642514251 -1.89606975387539
 1  9.18582467966797  0.88812142864286  0.27503146564656
 1  8.73538136093609 -0.73550190559056  0.74563918251825
 1  10.36076778827883 -0.12798803250325 -1.64218804940494
 1  9.27803429982998 -2.58849589388939 -1.73853881508151
 1  10.85588867356736 -2.60019653225322 -1.77348353435344
 1  9.91670914451445 -2.64901652425243 -0.24429652035203
 1  11.19589435163516  0.65702010951095  0.55666763016302
 1  11.38303871357136 -1.14389672777278  0.94374184718472
 1  12.64158989468947 -1.74206106750675 -1.06905524042404
 1  12.56535544154415 -0.01905242624262 -1.53427179097910
 1  13.74767627082708  0.88130138563856  0.66754341484148
 1  13.99805589588959 -1.09170160746075  1.10419558925893
 1  15.27661005310531  0.44986484688469 -1.32587224672467
 1  16.16451845284529 -2.24599132503250  0.02850525292529
 1  14.83946147794780 -2.22782097569757 -1.43921164156416
 1  16.59186724532453 -1.57330125872587 -1.58163027182718
 1  15.92577778747875  1.43048212091209  0.75621904290429
 1  16.64424612661266 -0.02055845154515  1.53849678137814
 1  18.13143233513351 -0.46040300410041 -0.55637164476448
 1  17.44249433063306  1.07466872537254 -1.24357784168417
 1  18.41128981178118  2.23004490409041  1.01740684158416
 1  18.73756003340334  0.83785739703970  1.62691904350435
 1  20.35754582128213  0.34721115691569 -0.15428767836784
 1  19.87879471277128  3.27867685258526 -1.15166543604360
 1  21.09043515741574  2.37918379627963 -1.50219147314731
 1  19.65460629382938  1.70650205250525 -1.98460888418842
 1  21.10901091639164  1.57429673347335  2.18886832843284
 1  22.19704434493449  2.14665319651965  0.87053131933193
 1  21.15000753335334  2.98471214741474  1.38200413161316

