%nproc=4
%Mem=2GB
# td=(NStates=1) CAM-B3LYP/6-31G(d,p) 

TD

0 1
12 -7.17996966626663  0.60967920862086  0.05368341694169
 6 -4.82486136723672 -1.89702181348135  0.45112074697470
 6 -4.77966727302730  2.86884121142114  1.10544400160016
 6 -9.43875846464646  3.01301370077008 -0.29839117211721
 6 -9.48717974557456 -1.78841901690169 -0.94491260626063
 7 -5.11351413301330  0.44576583708371  0.66531405180518
 6 -4.30831843714371 -0.72487310771077  0.72610451325133
 6 -2.91278223942394 -0.32613788588859  1.17467290849085
 6 -2.94228451765177  1.11721285378538  1.56267907430743
 6 -4.38699678637864  1.53745412581258  1.12315857705771
 6 -3.02358014901490  1.14463095039504  3.27246077217722
 6 -1.89926420732073 -0.58124213431343 -0.00830150435044
 6 -0.40758901290129 -0.35224345574557  0.50212879577958
 6  0.51885126352635 -0.65948938103810 -0.57838949074907
 8  0.19648019771977 -1.17428883268327 -1.67586686698670
 8  1.81348837383738 -0.45718062486249 -0.13619783988399
 7 -7.10046765526553  2.60600200750075  0.22208736553655
 6 -6.04289142014201  3.31228218211821  0.78134611861186
 6 -6.55631362106211  4.78124875527553  0.82936070057006
 6 -7.82075267066707  4.80746063276328  0.37047395439544
 6 -8.21945249844984  3.43480377167717  0.06229656885689
 6 -5.69429521072107  5.86829792109211  1.49907643284328
 6 -8.66311552395240  5.93356842484248  0.23839386128613
 6 -8.37085628342834  7.26881296559656  0.10128586628663
 7 -9.13695873157316  0.57178365666567 -0.51381308660866
 6 -9.89921158015802  1.70666134873487 -0.61146627082708
 6 -11.27267201010101  1.43818480888089 -1.02085683528353
 6 -11.31359988068807  0.05512939023902 -1.26653591979198
 6 -9.97375725942594 -0.41692018011801 -0.93810311321132
 6 -12.29832807490749  2.46670895179518 -1.11158168906891
 6 -12.43167321302130 -0.88962002420242 -1.77347252445245
 6 -12.42238857085709 -1.12522640784078 -3.26195430083008
 7 -7.15461171327133 -1.36693605520552 -0.16404952365237
 6 -8.23977920022002 -2.26519245874587 -0.50176798269827
 6 -7.69370703820382 -3.63403758665867 -0.46040446944694
 6 -6.35054057605761 -3.49257357285729 -0.08076056815682
 6 -6.07455223342334 -2.21626778127813  0.05117673907391
 6 -8.52144248894889 -4.80310312921292 -0.69966951395140
 6 -5.18714525222522 -4.38363434873487  0.12802130203020
 8 -5.06695805760576 -5.56728938253825  0.06443247804780
 6 -4.08261167116712 -3.33465639973997  0.49734062606261
 6 -3.50295465966597 -3.70202628722872  1.81102228192819
 8 -3.74160781538154 -3.05359859265927  2.85332904820482
 8 -2.74021536943694 -4.74744289678968  1.70531861986199
 6 -2.04106674517452 -5.09819028832883  2.88569990699070
 6  2.85420919751975 -0.64029328702870 -1.17676305120512
 6  4.18379170157016 -0.35803965336534 -0.48059058775878
 6  5.08002160956096  0.60215353985399 -0.75715561576158
 6  4.97454487108711  1.58265280158016 -1.96681377247725
 6  6.46008246584658  0.64284309120912 -0.03287997419742
 6  7.55599333823382  0.07068518661866 -0.88720838953895
 6  8.87116619901990  0.04453471997200  0.00476788258826
 6  10.12418331133113 -0.47534463276328 -0.82373876827683
 6  10.08038522472247 -1.99706904180418 -1.11128278977898
 6  11.43073419051905 -0.20068095869587 -0.01362116341634
 6  12.73414058305831 -0.47484400030003 -0.81026156595660
 6  13.91477716551655 -0.06314307750775  0.02325953895390
 6  15.43272861686169 -0.38103071477148 -0.49150220052005
 6  15.67985208740874 -1.83152593839384 -0.81745902570257
 6  16.34435768976898  0.33542792889289  0.48033721842184
 6  17.81338704300430  0.39549767556756 -0.14429270917092
 6  18.83996939643965  1.12787463426343  0.68771113281328
 6  20.26115379517952  1.19484522912291  0.10038964256426
 6  20.37246747564756  1.94902055005501 -1.22927874927493
 6  21.17805567966797  1.77984235363536  1.24363106470647
 1 -4.20938119661966  3.70521890359036  1.43569809080908
 1 -10.19006275797580  3.70166775067507 -0.28471277387739
 1 -10.11308056985698 -2.62702275697570 -1.38370191769177
 1 -2.71914060476048 -0.81684134783478  2.01270850945094
 1 -2.22485212321232  1.73501198979898  1.35575994249425
 1 -2.00700442374237  0.98965445444544  3.74599481288129
 1 -3.40635542174217  2.31568102470247  3.55287985548555
 1 -3.75490647184718  0.69837420512051  3.69425330983098
 1 -1.70840336723672 -1.53989991039104 -0.43791877787779
 1 -2.33686788898890  0.19627171847185 -0.52884798639864
 1 -0.28426552055205  0.65177310081008  0.71898415031503
 1 -0.24163011671167 -0.95523849924992  1.35773864976498
 1 -5.20713288098810  6.50556573167317  0.79441122332233
 1 -6.19773444374437  6.85418521732173  1.94673936313631
 1 -4.90942417121712  5.53161833323332  2.27857153585358
 1 -9.69677717661766  5.77274021012101  0.26805464996500
 1 -9.18342898329833  7.91824041354135 -0.07055646234623
 1 -7.36476151275127  7.53913448264826  0.38750427982798
 1 -12.12420783358336  3.39528683398340 -1.76290258865887
 1 -13.13455866936694  1.71756739483948 -1.53900742444244
 1 -12.45491245264527  3.02815590099010 -0.39968146614661
 1 -12.28482101020102 -1.99930232843284 -1.28011821972197
 1 -13.43163916751675 -0.45218903190319 -1.58429578657866
 1 -13.07724819101910 -1.88938017721772 -3.66778977667767
 1 -12.39064923892389 -0.08305703160316 -3.80403797879788
 1 -11.35808915651565 -1.46773971797180 -3.64321343684368
 1 -9.07821871777178 -4.66248909720972 -1.73737131853185
 1 -8.01159486048605 -5.84834494269427 -0.39247347544754
 1 -9.37926009180918 -4.85652243924392 -0.09454771097110
 1 -3.37713784578458 -3.34477606210621 -0.31727838083808
 1 -1.47886897689769 -4.33645202250225  3.23519020602060
 1 -2.80704589198920 -5.27953859625963  3.59017623972397
 1 -1.58131955845585 -5.94605878297830  2.57079378227823
 1  2.80680535163516 -1.57079676957696 -1.59751382768277
 1  2.53015471567157 -0.18805588718872 -2.14545656545655
 1  4.19295852015202 -1.06957496369637  0.33985636183618
 1  4.12459339563956  1.64228532483248 -2.42287562986299
 1  5.26509980838084  2.58181257145715 -1.78237259185919
 1  5.72528785158516  1.23882421262126 -2.72030332963296
 1  6.84158718201820  1.69388561626163  0.00086758445845
 1  6.31541488948895 -0.12518576747675  0.85018602570257
 1  7.12168591069107 -0.87613868556856 -1.12777690639064
 1  7.71622315331533  0.86051292779278 -1.75494564146415
 1  9.23255935313531  1.20410302680268  0.25729969246925
 1  8.70749857265727 -0.70351870727073  0.81778639723972
 1  9.92435414691469  0.32379714601460 -1.74508833943394
 1  9.27171366776678 -2.18857590189019 -1.63278824002400
 1  11.01851493619362 -2.17947446004600 -1.65205139113911
 1  9.97988546214621 -2.48065968856886 -0.18356044674467
 1  11.39407416961696  0.78455286278628  0.38432039543954
 1  11.43749415911591 -0.71199353745375  1.02840031303130
 1  12.84321005670567 -1.43920078147815 -1.28487682258226
 1  12.58110701670167  0.21521100010001 -1.70483884768477
 1  13.71247275047505  0.86478973447345  0.25292195269527
 1  14.03983007330733 -0.80140257755776  0.87589275897590
 1  15.45275766786679  0.17438729912991 -1.51305096459646
 1  15.71792379337934 -2.33399012491249  0.10467286968697
 1  15.02871040284028 -2.25031322492249 -1.44428214861486
 1  16.68542660126013 -2.00961489008901 -1.13281539033903
 1  16.07269247894789  1.29255832853285  0.68639206020602
 1  16.32793449544955 -0.17351374707471  1.45224815651565
 1  18.15570476237624 -0.53126008980898 -0.33746975457546
 1  17.69565964716472  0.78767002550255 -1.12066555045505
 1  18.62179086188619  2.15962786238624  0.82980808170817
 1  18.83235951335134  0.81404501580158  1.74589094069407
 1  20.55008507520752  0.13073950975097  0.00685843624362
 1  20.15049188248825  3.09264824972497 -1.22012228172817
 1  21.34045015891589  1.73730960886089 -1.96176743074307
 1  19.50135096829683  1.56537794009401 -1.89581000430043
 1  21.04178419371937  1.06870617441744  2.12744218581858
 1  22.25290993149315  1.93488201940194  0.96788105430543
 1  20.89114164676468  2.82603627982798  1.29766569776978

