%nproc=4
%Mem=2GB
# td=(NStates=1) CAM-B3LYP/6-31G(d,p) 

TD

0 1
12 -7.10589225852585  0.59170741144114 -0.01646359775978
 6 -4.90279916101610 -1.99172128342834  0.52511814671467
 6 -4.91765107140714  2.72456678397840  1.18362181938194
 6 -9.46723131193119  3.00927332673267 -0.38892022502250
 6 -9.55816684428443 -1.67729790479048 -0.85084319931993
 7 -5.10916369796980  0.39857111761176  0.73223074347435
 6 -4.32917052235224 -0.75397601800180  0.73373527632763
 6 -2.87657861906191 -0.42985825792579  1.19869531073107
 6 -3.04918520772077  1.06151728422842  1.60352315871587
 6 -4.42231031773177  1.41020140054005  1.18320458165817
 6 -2.68525631663166  1.32084857215722  3.13615714181418
 6 -1.89664394529453 -0.73487749784978  0.02534185998600
 6 -0.53512176617662 -0.31648988038804  0.42229081198120
 6  0.50267964636464 -0.60433386548655 -0.65952760456046
 8  0.19042959265927 -1.12757416121612 -1.81292057235724
 8  1.78346537153715 -0.34577948474847 -0.25845006510651
 7 -7.06644425292529  2.59459086638664  0.38216337313731
 6 -6.07377450845085  3.31954290819082  0.80986897089709
 6 -6.45576356605661  4.73430406080608  0.77231499599960
 6 -7.81663225862586  4.79734962166217  0.46047295429543
 6 -8.22678323152315  3.45782607390739  0.11625196439644
 6 -5.55174095529553  5.89160025132513  1.43788031323132
 6 -8.61580079247925  6.08922399039904  0.30759078097810
 6 -8.08639783758376  7.21250733503350 -0.11994625692569
 7 -9.14150918661866  0.69442592089209 -0.41841354665467
 6 -9.88641030003000  1.74091477407741 -0.54308943314331
 6 -11.26134087698770  1.48535952635264 -0.97393214281428
 6 -11.32564108480848  0.13044692199220 -1.10216948314831
 6 -9.95492537623762 -0.38719720782078 -0.81229053195320
 6 -12.37259550165017  2.37750003090309 -1.15373590449045
 6 -12.41028107380738 -0.64863592579258 -1.70279545674567
 6 -12.28459479147915 -0.86073995919592 -3.18043614901490
 7 -7.24192044414441 -1.39224858645865 -0.10143326202620
 6 -8.28695391769177 -2.24014995449545 -0.53250105600560
 6 -7.86108377587759 -3.57782196509651 -0.44366279527953
 6 -6.53077859985999 -3.57684199969997  0.00669817771777
 6 -6.21732651085108 -2.15492164666467  0.17381900330033
 6 -8.66494683938394 -4.79351217011701 -0.85237478447845
 6 -5.42668920662066 -4.43359934523452  0.15991449134914
 8 -5.22013337513751 -5.62567522112211  0.18093412821282
 6 -4.21050446044604 -3.36559949404940  0.54589548154816
 6 -3.52043640784078 -3.75073115771577  1.82190337003700
 8 -3.72576623122312 -3.30462369516952  2.92968668396840
 8 -2.60861220912091 -4.83970212271227  1.67747583558356
 6 -2.21375401390139 -5.38737920722072  2.95439677667767
 6  2.76430020662066 -0.53810306800680 -1.23671904680468
 6  4.09798312071207 -0.32222607200720 -0.55478800750075
 6  5.17899150655066  0.37012033653365 -1.17361726192619
 6  5.09390680728073  1.00059459575958 -2.49528661976198
 6  6.37789424702470  0.53944275117512 -0.34744143034303
 6  7.72878061696170 -0.18090997289729 -1.07115678437844
 6  8.94386346874687  0.05710597709771 -0.22505509970997
 6  10.15158605160516 -0.58858595689569 -0.87011340574057
 6  10.11752893909391 -2.19982931783178 -1.09354101560156
 6  11.42263338043804 -0.20061095169517 -0.03505330663066
 6  12.76766393539354 -0.43006952285229 -0.65155569536954
 6  14.00798648644865 -0.07045380858086  0.26124333733373
 6  15.30522586658666 -0.05567817951795 -0.35283833413341
 6  15.70684478667867 -1.44721750755075 -0.80687796759676
 6  16.46264951895189  0.50319470557056  0.56963614831483
 6  17.79242494679468  0.66713483928393 -0.18176645654565
 6  18.79066446594659  1.41656350315031  0.73841620332033
 6  20.20921860166017  1.29044478907891  0.24681428502850
 6  20.51541177007701  2.04780042804280 -0.98165398679868
 6  21.24382225632563  1.74287865726573  1.36351305290529
 1 -4.10991124962496  3.37952633433343  1.73814833583358
 1 -10.30003375507551  3.82347993189319 -0.45045934853485
 1 -10.27025628742874 -2.37267732243224 -1.30510405790579
 1 -2.45882457315731 -1.14285394909491  2.03498073667367
 1 -2.24704434243424  1.59387787638764  1.07840220672067
 1 -1.49006272957296  0.97226271527153  3.39941015441544
 1 -2.84914970117012  2.31875133173317  3.58252281978198
 1 -3.40950193139314  0.75008937663766  3.70447433193319
 1 -2.01720424732473 -1.91856777717772 -0.10158514451445
 1 -2.10751495369537 -0.23122103080308 -0.82617771937194
 1 -0.39053614761476  0.73312123562356  0.69092134403440
 1 -0.19243519721972 -1.02315529092909  1.31108398429843
 1 -4.89946211391139  6.28048322342234  0.59550133233323
 1 -6.03939861016102  6.66577637643764  1.78863355255526
 1 -4.76192942174217  5.50316548794880  2.09383306200620
 1 -9.58600609950995  5.82149508560856  0.70873871837184
 1 -8.60810145054505  8.13589217871787 -0.13207261396140
 1 -7.03405844244424  7.30348091729173 -0.49068353895389
 1 -12.19812522532253  3.33349065436544 -1.86659295769577
 1 -13.31358657215721  2.02709834793479 -1.45873939763976
 1 -12.60719768116812  2.82463554895490 -0.13568506650665
 1 -12.64431695979598 -1.59214161236124 -1.28864907280728
 1 -13.30767677127713 -0.17099091209121 -1.52610996799680
 1 -13.20650111631163 -1.30904214341434 -3.51755475317532
 1 -12.01649182318232  0.00728200230023 -3.91275885088509
 1 -11.45395874347435 -1.61956490049005 -3.21747086258626
 1 -8.90495139103910 -4.45202805110511 -1.91410899229923
 1 -8.14830853185319 -5.66793690189019 -0.94416864496450
 1 -9.56482864866487 -4.82003879087909 -0.08927718391839
 1 -3.39127925992599 -3.28727031153115 -0.39890654365437
 1 -1.55747683768377 -4.68425680298030  3.57101378837884
 1 -3.24772996039604 -5.73743438583858  3.44619184128413
 1 -1.45778720522052 -6.16200037713771  2.58642534543454
 1  2.67318198929893 -1.46047573747375 -1.81273534983498
 1  2.58069977017702  0.16321924032403 -1.96786880668067
 1  4.05745496979698 -0.53743174937494  0.61199357555756
 1  4.12348328462846  1.36984808110811 -2.79020236253625
 1  5.77115041344134  2.11707609780978 -2.30484483908391
 1  5.73099842264226  0.52298262846285 -3.33164446374637
 1  6.70393341664166  1.58662489018902 -0.31590409270927
 1  6.44273762176218  0.29317606870687  0.68323933103310
 1  7.27459120122012 -1.20828189988999 -1.10336446514651
 1  7.77779931093109  0.30128700520052 -2.05932607950795
 1  8.95766186338634  1.08231084758476 -0.09088512601260
 1  8.69296711951195 -0.34953330873087  0.74225884448445
 1  10.54163587508751 -0.19154438813881 -1.81673550415041
 1  9.24685118151815 -2.49009605390539 -1.67754271547155
 1  11.06133921862186 -2.61014752735273 -1.63883006900690
 1  10.22677015061506 -2.83493511611161 -0.07871996269627
 1  11.42319708190819  0.61210561806181  0.45515747914791
 1  11.37849825952595 -0.82874521262126  0.93225069806981
 1  12.69771550725073 -1.53292015341534 -0.74822315721572
 1  12.85057396339634  0.01256073507351 -1.77952631643164
 1  13.92897440064006  1.12962621812181  0.51149781028103
 1  13.97851394169417 -0.66717915521552  1.19153432313231
 1  15.36564895699570  0.55284514491449 -1.32351201070107
 1  15.96345834683468 -2.15802252815282 -0.04276187378738
 1  14.87615514731473 -2.06100429402940 -1.31618933933393
 1  16.43843190179018 -1.42233616221622 -1.72055416421642
 1  16.12372758245824  1.50242931563156  1.04016743774378
 1  16.57677937993800 -0.11477787348735  1.37261019271927
 1  18.37727691959196 -0.23742070587059 -0.27039304690469
 1  17.62303238443845  1.00438169666967 -1.27083056695670
 1  18.48908759155916  2.42359425902590  0.70659576047605
 1  18.61630790819082  0.74778839013901  1.72651900350035
 1  20.64641470817082  0.29786622242224  0.30243799419942
 1  20.20805763906391  2.92656164106411 -0.77563783328333
 1  21.59048516241624  2.26154203210321 -1.31989324332433
 1  19.96660749394939  1.50941234353435 -1.81875229852985
 1  20.92882289758976  1.31500080388039  2.28330777237724
 1  22.48154279477948  1.31624015521552  1.05747001320132
 1  21.15546807940794  2.89329300550055  1.33673960516052

