%nproc=4
%Mem=2GB
# td=(NStates=1) CAM-B3LYP/6-31G(d,p) 

TD

0 1
12 -7.11916358565857  0.60926916761676  0.07625567416742
 6 -4.83481236233623 -1.98133024432443  0.51756739163916
 6 -4.78789809610961  2.83521784908491  1.33801725892589
 6 -9.31950653945395  3.08046044544454 -0.34774610761076
 6 -9.54434546214621 -1.76339651465146 -0.81689980498050
 7 -5.10320310191019  0.50116137663766  0.75183270367037
 6 -4.35846345164516 -0.72249286968697  0.80466236903690
 6 -2.89412037323732 -0.43456872897290  1.24423986518652
 6 -2.98579886908691  1.00328146064606  1.73186599299930
 6 -4.42493057975798  1.51805218561856  1.21024728592859
 6 -2.85695348634863  1.16132261956196  3.19475300140014
 6 -1.85010929182918 -0.59863387348735  0.00370969676968
 6 -0.39558781278128 -0.42626085748575  0.48625720862086
 6  0.53067244564456 -0.61750518261826 -0.69353100490049
 8  0.21936248594859 -0.86917832163216 -1.85159443974397
 8  1.78081510651065 -0.51746665346535 -0.34564878497850
 7 -7.08830643914391  2.62328373567357  0.48690384718472
 6 -5.97713484448445  3.42209316321632  0.86073405740574
 6 -6.36055404510451  4.84501513191319  0.78448621312131
 6 -7.71048164356436  4.85122500920092  0.47327423442344
 6 -8.09040959415941  3.47696798809881  0.17079741894189
 6 -5.49389517071707  5.85159625092509  1.40078660386039
 6 -8.61048026042604  6.00765583358336  0.41707172907291
 6 -8.27660685848585  7.23185927022702  0.15333107080708
 7 -9.12908794449445  0.65101157945795 -0.46687839313931
 6 -9.81815347434743  1.76652733533353 -0.63991911611161
 6 -11.19508425132513  1.49358034843484 -1.18347309690969
 6 -11.26193471417142  0.15986986428643 -1.37745701190119
 6 -9.94981486518652 -0.35911439953995 -0.87862716561656
 6 -12.16019426152615  2.51359364026403 -1.62273280418042
 6 -12.39146919261926 -0.68124918711871 -1.83096827402740
 6 -12.34643097509751 -0.83134701990199 -3.38329643504350
 7 -7.17086333843384 -1.36246560816082 -0.05336845554555
 6 -8.30393561586159 -2.25100103960396 -0.40360816671667
 6 -7.91316898439844 -3.69208339123912 -0.52259068806881
 6 -6.50623614561456 -3.58232254775478 -0.09634212631263
 6 -6.21205598379838 -2.22434858935894  0.09270089148915
 6 -8.78640898559856 -4.86771959085909 -0.86307585458546
 6 -5.36705324302430 -4.40542652795280  0.22883138303830
 8 -5.22437379917992 -5.62441509510951  0.24411044584458
 6 -4.15101851185119 -3.33389632373237  0.63027391939194
 6 -3.58480284448445 -3.74023010761076  1.94393557325733
 8 -3.80628428302830 -3.21686491929193  2.99525324062406
 8 -2.74086543444344 -4.80517867036704  1.78512660066007
 6 -2.12443508200820 -5.20113058235824  3.02023336033603
 6  2.82932670927093 -0.84047330503050 -1.24751012591259
 6  4.14122744514451 -0.55309915931593 -0.55315784448445
 6  5.06391999939994  0.22233555805581 -1.10617051725173
 6  4.97414483108311  1.04553909020902 -2.25612270337034
 6  6.38586504410441  0.41862066896690 -0.28613529972997
 6  7.59659739863986 -0.26128801070107 -1.01863153185319
 6  8.83005208760876 -0.15199493299330 -0.10805339953995
 6  10.15824671767177 -0.49583668196820 -0.92298869326933
 6  10.19499668586859 -1.88401773667367 -1.36921858335834
 6  11.36949806690669 -0.36707759835984  0.00507070577058
 6  12.71747891689169 -0.54442095799580 -0.65172571237124
 6  13.91285697349735 -0.07754451765177  0.26243345634563
 6  15.34606995099510 -0.09055166686669 -0.43367641794179
 6  15.76740084228423 -1.53508629442944 -0.79485676547655
 6  16.42732598659866  0.48895328142814  0.45762494719472
 6  17.78281398569857  0.61046917271727 -0.18105638553855
 6  18.80100550005001  1.42150399719972  0.70009237093709
 6  20.18702638243824  1.38736448104810  0.26825642924292
 6  20.22953318221822  2.16771241924192 -1.08317413881388
 6  21.18638651275128  1.95288965836584  1.22623932553255
 1 -3.88751901040104  3.41666004770477  1.69870439143914
 1 -10.06585033673367  3.85144272817282 -0.68866316891689
 1 -10.23193245504550 -2.42913296799680 -1.02970651815182
 1 -2.65723441414141 -1.08643830753075  2.19194643324332
 1 -2.25882552055206  1.45847433603360  1.10133449994999
 1 -1.84169789308931  0.83662915191519  3.45891610501050
 1 -3.07477226342634  2.13089254585459  3.53952852035204
 1 -3.57431841304130  0.17212157985799  3.48032191669167
 1 -1.89745227212721 -1.65389130953095 -0.42324731073107
 1 -2.14568877107711  0.13722581388139 -0.83225832743274
 1 -0.27241433543354  0.66611453495350  0.79968222012201
 1 -0.13735968966897 -0.95119809520952  1.52080495639564
 1 -4.89141130883088  6.54209938503850  0.65349713191319
 1 -6.02176684698470  6.72931273007301  1.72122681188119
 1 -4.77616084488449  5.50359553095310  2.04779845854585
 1 -9.61858935783578  5.92321525762576  0.28981682618262
 1 -8.83289392979298  7.99771836133613  0.04251484478448
 1 -7.24235927252725  7.54361493069307  0.12680821022102
 1 -12.00502591539154  2.80292759805981 -2.78901519991999
 1 -13.17385259875988  2.03564920302030 -1.44371789548955
 1 -11.95892285368537  3.57562064746475 -0.95982748074808
 1 -12.33071559965997 -1.77525992419242 -1.56078628652865
 1 -13.31110711431143 -0.21723553655366 -1.62012936993699
 1 -13.26150661686169 -1.37991923112311 -3.64739773747375
 1 -12.03477365136514  0.24890616471647 -3.75937351235124
 1 -11.61504485208521 -1.46801974597460 -3.68911802730273
 1 -9.13414431033103 -4.74181703000300 -1.83702128352835
 1 -8.06860056105611 -5.79335944414442 -0.56355058315832
 1 -9.73056522232223 -4.98291507850785 -0.27555581178118
 1 -3.38170830283028 -3.54446603110311 -0.14359101210121
 1 -1.72257334733473 -4.43712208950895  3.53216990399040
 1 -2.71869705710571 -5.78327897029703  3.70203742584258
 1 -1.32558398489849 -5.96217039413941  2.69320602350235
 1  2.59823449454946 -1.87087677757776 -1.80562463876388
 1  2.41890359055906 -0.15608268986899 -2.20652267206721
 1  4.06697592189219 -1.10783879007901  0.57031940814081
 1  4.02019295559556  0.82513360966097 -2.80423376567657
 1  5.30340363876388  2.15591998219822 -1.99814416901690
 1  5.76758208100810  0.86369669986999 -3.14646594589459
 1  6.48402142544254  1.55342156985699  0.13557105480548
 1  6.35257860586059 -0.17867111601160  0.65239624672467
 1  7.30473421552155 -1.26850792249225 -1.23861799049905
 1  7.91761329232923  0.30545742224222 -1.82496264316432
 1  8.80321641884188  0.79786240274027  0.32591655415542
 1  8.81967979077908 -0.83748210361036  0.68065268386839
 1  10.36875858735874  0.14527929422942 -1.88003183378338
 1  9.21619811621162 -1.98499554385439 -1.97601256245625
 1  11.00858394309431 -2.00337685028503 -2.13182936893689
 1  10.16212368596860 -2.58683030563056 -0.46546863756376
 1  11.34737950015001  0.66095050255026  0.80515247864786
 1  11.38971938163816 -1.01326366446645  0.74589206220622
 1  12.99522525822582 -1.68986584798480 -1.00311864676468
 1  12.85464437043704  0.02835231423142 -1.62942130593059
 1  13.84517602080208  0.85841909740974  0.75938259875988
 1  14.06372246254625 -0.82327476477648  1.19328449814981
 1  15.33005539763976  0.57199706010601 -1.31366102560256
 1  15.91685368636864 -2.05778250415041  0.14237664006401
 1  14.87756528832883 -1.98811700530053 -1.43538125852585
 1  16.62982104070407 -1.55837976657666 -1.37610971977198
 1  16.17350255995600  1.46792586528653  0.75957937893789
 1  16.51883358535854 -0.06388278397840  1.35688862056206
 1  18.24920411231123 -0.38916588038804 -0.54000000760076
 1  17.58128821002100  1.04679593809381 -1.01720520442044
 1  18.48902758555855  2.41085298489849  0.71117621852185
 1  18.60013629102910  1.07071068236824  1.85883223482348
 1  20.57402746944694  0.46069250505051 -0.06183843344334
 1  19.85582241554156  3.27298628352835 -1.02832310181018
 1  21.25173128702870  2.38142402030203 -1.20340159415942
 1  19.92905373857386  1.73913531583158 -1.99500992429243
 1  21.35226524182418  1.18747805160516  1.93336277787779
 1  22.02511715221522  2.02292082328233  0.83429769596960
 1  20.73103563616362  3.02034571077108  1.61382731393139

