%nproc=4
%Mem=2GB
# td=(NStates=1) CAM-B3LYP/6-31G(d,p) 

TD

0 1
12 -7.24841651095110  0.56570481118112  0.20157820642064
 6 -4.88486736783678 -1.98091020232023  0.52191782668267
 6 -4.75879518581858  2.80567489478948  1.18697215441544
 6 -9.44278886768677  3.05733813321332 -0.35182651565157
 6 -9.58860988858886 -1.84802497749775 -0.82385050005000
 7 -5.07131991359136  0.37651891239124  0.66712423282328
 6 -4.27491509680968 -0.70598121852185  0.79882178497850
 6 -2.94111507270727 -0.41535680778078  1.12231767296730
 6 -2.96531682088209  1.07376850935094  1.62989579597960
 6 -4.30169825652565  1.49814019441944  1.09267552875288
 6 -2.95068285928593  1.17278376567657  3.09430295639564
 6 -1.77698197909791 -0.72519652975298  0.00703002880288
 6 -0.44822307630763 -0.44986321772177  0.44633321622162
 6  0.55563494189419 -0.59285271737174 -0.58151980378038
 8  0.25496604630463 -1.17093849764977 -1.66703598389839
 8  1.85925295029503 -0.23874878167817 -0.26617083718372
 7 -7.09265687418742  2.60356176347635  0.29301445824582
 6 -6.06640377137714  3.33506446034603  0.82151013501350
 6 -6.44910289999000  4.71903253365337  0.88295606010601
 6 -7.74086468186819  4.86987687438744  0.43102000900090
 6 -8.21815236843684  3.45465575687569  0.10319065826583
 6 -5.65065084628463  5.87188828012801  1.38992551775178
 6 -8.63928314071407  5.98469353735373  0.20723074497450
 6 -8.30023922172217  7.29321540584058  0.13103884158416
 7 -9.15477051275128  0.61061754005401 -0.46165787108711
 6 -9.89402106110611  1.71626230883088 -0.60332545674567
 6 -11.25404014691469  1.48284927532753 -1.17445219481948
 6 -11.26683520422042  0.10540441774177 -1.23362262846285
 6 -9.92291217491749 -0.41616010411041 -0.83935323822382
 6 -12.39718796089609  2.44441672257226 -1.26392692359236
 6 -12.38832887858786 -0.78027909010901 -1.65350052725273
 6 -12.33218955095510 -1.19612349754976 -3.16793489888989
 7 -7.24797104920492 -1.43678303990399 -0.07177029572957
 6 -8.24161938423842 -2.26939287878788 -0.47523532943294
 6 -7.79735740324032 -3.57400158305831 -0.59058748774877
 6 -6.52662818481848 -3.53109742524252 -0.10519301140114
 6 -6.18826360456046 -2.16660281478148  0.13089471087109
 6 -8.43540388508851 -4.88853167206721 -0.90176972397240
 6 -5.33012955065507 -4.39852583788379  0.16296479637964
 8 -5.24866622842284 -5.56401905550555  0.16682271707171
 6 -4.20179358935894 -3.33512644674467  0.60573146514651
 6 -3.56882124632463 -3.65995207980798  1.84063524322432
 8 -3.72388604320432 -3.06626985978598  2.97260097539754
 8 -2.75314666256626 -4.68880703320332  1.74674276227623
 6 -2.00036267476748 -5.09348981828183  2.87548888588859
 6  2.86079985658566 -0.51069032673267 -1.21138651355136
 6  4.22073539593959 -0.25493934333433 -0.55650817951795
 6  5.08989259665967  0.59494281878188 -0.95229512971297
 6  5.10658807540754  1.34755929222922 -2.22749984108411
 6  6.45279173677368  0.66931573847385 -0.20275696189619
 6  7.63964170307031  0.01295941404140 -1.03361303000300
 6  8.96951603400340 -0.12895262876288 -0.23862645684568
 6  10.19561045404540 -0.43652075037504 -0.94290068446845
 6  10.12865005120512 -1.94315365026503 -1.26660832233223
 6  11.36057717481748 -0.26485737633763 -0.02173197449745
 6  12.68972614161416 -0.44686120202020 -0.67791833163316
 6  13.90022571037104 -0.17958472167217  0.35725293829383
 6  15.26800214421442 -0.25504811651165 -0.45426847714771
 6  15.66800090229023 -1.72036482228223 -0.80424770457046
 6  16.39488274227423  0.26697108320832  0.59672885758576
 6  17.82277798209821  0.52115024082408 -0.18039631953195
 6  18.84534993449345  1.10344219101910  0.84669703140314
 6  20.20663834363436  1.25976172077208  0.19486909050905
 6  20.16622685158516  2.14704035203520 -1.07719354075408
 6  21.29093696779678  1.69741411081108  1.15456215781578
 1 -4.01292155065507  3.61994037573757  1.58078259925993
 1 -10.20754450615062  3.73718130203020 -0.50922522512251
 1 -10.26875613741374 -2.51996205090509 -1.15619916741674
 1 -2.64102279297930 -1.13325298899890  2.03387062566257
 1 -2.14835447344734  1.74332282088209  1.11694606110611
 1 -2.01677540084008  1.04763025202520  3.71686189958996
 1 -3.17245203140314  2.22381183778378  3.41999656715672
 1 -3.47068805000500  0.62576694439444  3.75819970447045
 1 -2.01807433433343 -1.79278519891989 -0.25440042604260
 1 -1.84695889808981 -0.21143905260526 -0.96099120072007
 1 -0.15902299629963  0.44246216971697  0.82088434033403
 1 -0.15854180788079 -1.17358033343334  1.41289416531653
 1 -5.11476364406441  6.43253842894289  0.49515129732973
 1 -6.17310198049805  6.57790758955896  1.90377506670667
 1 -4.81284451325132  5.29502467386739  2.02927660636064
 1 -9.86189368826883  5.88962189828983  0.19262710721072
 1 -9.15545618601860  8.07589617911791 -0.03357276397640
 1 -7.21922695929593  7.55883645284529 -0.12980745134513
 1 -12.00180559335934  3.17034433973397 -1.94709100750075
 1 -13.37706291979198  2.10135577367737 -1.64666819051905
 1 -12.61303826522652  3.03099618501850 -0.43760525852585
 1 -12.52432496059606 -1.71791418961896 -1.26809701760176
 1 -13.23174917851785 -0.03697751075108 -1.67776513351335
 1 -13.25108557475748 -1.62920415961596 -3.40800379807981
 1 -12.18179835383538 -0.33788251415142 -3.83465104010401
 1 -11.43828717631763 -1.81611455545555 -3.31148026352635
 1 -8.97606850275028 -4.87281012931293 -1.93570115151515
 1 -7.72337603860386 -5.85007511571157 -0.74948917701770
 1 -9.37337950375037 -5.05116190319032 -0.42742099829983
 1 -3.63728386038604 -3.47319890439044 -0.33471012401240
 1 -1.12229331933193 -4.35484386168617  2.98882556955696
 1 -2.65143033043304 -5.24837547994799  3.72133935603560
 1 -1.50165159165917 -6.03782795989599  2.30251695459546
 1  2.43334800590059 -1.45014470437044 -1.67063113941394
 1  2.55688738893889  0.12634555295530 -1.96377839763976
 1  4.34095331963196 -0.83469147534753  0.22939531573157
 1  3.99943087938794  1.31284238053805 -2.86554989728973
 1  5.33543684208421  2.38797318751875 -2.03368772337234
 1  5.85017033983398  0.87866819701970 -2.82351365066507
 1  6.62825584888489  1.83742997069707 -0.19859236153615
 1  6.34801814981498  0.28799555065507  0.91568257535754
 1  7.46814055615562 -0.99994106580658 -1.42828695739574
 1  7.70646217721772  0.49778665516552 -2.14340448734873
 1  9.19606570377038  0.93162577907791  0.24646860936094
 1  8.68548637143714 -0.88242659805981  0.46715133373337
 1  10.55520723222322  0.27904267056706 -1.83519735033503
 1  9.69505600200020 -2.12817986228623 -2.22272723392339
 1  11.26396948164816 -2.60653716631663 -1.43158934493449
 1  9.49044651825183 -2.44175579817982 -0.42229432013201
 1  11.02955771797180  0.72194660216022  0.15594755815582
 1  11.08101851155116 -0.80025236333633  0.94776224922492
 1  12.84168990469047 -1.36321318271827 -1.27972630753075
 1  12.79796870287029  0.45519499849985 -1.53198156195620
 1  13.59839134233423  0.80922417791779  0.59598625912591
 1  14.06126221652165 -0.77193963126313  1.18624379407941
 1  15.47873026512651  0.48484834523452 -1.24582424192419
 1  15.55346734773478 -2.52400912681268  0.04227663006301
 1  14.93621115291529 -2.34158235183518 -1.52834055445545
 1  16.47336539513952 -1.59871379998000 -1.42431454025402
 1  16.18509371907190  1.08118719141914  1.00163358435844
 1  16.58854055605561 -0.55809220492049  1.46362929462946
 1  18.26099529142914 -0.31623858765877 -0.42053806140614
 1  17.58101818301830  1.32480373887389 -0.90634411831183
 1  18.52469115191519  2.07800970057006  1.09717481838184
 1  18.85513179057905  0.48622223352335  1.82207855945594
 1  20.57408747544754  0.19773620942094 -0.11866411601160
 1  20.38287512081208  3.26732571747175 -0.90711098059806
 1  21.23092920682068  2.02871874977498 -1.52419367336734
 1  19.43774460766076  1.78610001230123 -1.74453487678768
 1  21.49933994929493  1.19378868266827  2.14938438003800
 1  22.34271891239124  1.64008253945395  0.62887715391539
 1  21.13823635623562  2.63375705190519  1.58912484368437

