%nproc=4
%Mem=2GB
# td=(NStates=1) CAM-B3LYP/6-31G(d,p) 

TD

0 1
12 -7.13173484278428  0.59247748844885  0.04186223482348
 6 -4.85470435153515 -1.95452756405641  0.61822745764576
 6 -4.77194650095010  2.80222454975498  1.22086554375438
 6 -9.47601219001900  3.08743114251425 -0.28943027602760
 6 -9.58069909750975 -1.70724089908991 -0.83754186918692
 7 -5.16443922552255  0.43968522902290  0.74806232663266
 6 -4.38513611891189 -0.70332095249525  0.78811071387139
 6 -2.94939590079008 -0.36245151725173  1.28562400360036
 6 -3.07248753795380  1.16452758525853  1.72134494089409
 6 -4.37915600230023  1.47870825122512  1.16219248044805
 6 -2.94526231723172  1.28863535083508  3.18980250635064
 6 -1.99851413231323 -0.50055406550655  0.12780210601060
 6 -0.51425967996800 -0.55489372077208  0.63194177707771
 6  0.38918829722972 -0.78970240234023 -0.58662031383138
 8  0.13828437813781 -1.14675607940794 -1.68592787308731
 8  1.72886991199120 -0.59793470027003 -0.17634185428543
 7 -7.02928053655366  2.64274568186819  0.32644780158016
 6 -5.99748687968797  3.32839379327933  0.86095407940794
 6 -6.36950494019402  4.73577420782078  0.94212197669767
 6 -7.76572716811681  4.82937282398240  0.43124003100310
 6 -8.18564911811181  3.43988427972797  0.12384272347235
 6 -5.55995177637764  5.89569066036604  1.29233575877588
 6 -8.54590380278028  6.01755682368237  0.34153417531753
 6 -8.33103230103010  7.29795587988799  0.04387012471247
 7 -9.10732576827683  0.66316279457946 -0.49249095439544
 6 -9.84362602160216  1.76878756135614 -0.50982610681068
 6 -11.16558130103010  1.41139212961296 -1.00374512411241
 6 -11.24648316901690  0.14732861016102 -1.16536580278028
 6 -9.90245012871287 -0.39119760786079 -0.79820912381238
 6 -12.26465470757076  2.46919920082008 -1.32935346624662
 6 -12.28825887158716 -0.72633369556956 -1.84110928812881
 6 -12.18044437643764 -0.94852873807381 -3.37228533393339
 7 -7.21565781788179 -1.41039040064006 -0.19444256295630
 6 -8.27309253155316 -2.23146908640864 -0.59089689558956
 6 -7.82119978747875 -3.65170935383538 -0.48732716171617
 6 -6.47629315131513 -3.52078639413941 -0.04239673177318
 6 -6.13010778897890 -2.15340149464946  0.13070469186919
 6 -8.70471081578158 -4.81274409330933 -0.80447999499950
 6 -5.25158169586959 -4.34909089438944  0.20819931983198
 8 -4.98508987078708 -5.50352300590059  0.03641967676768
 6 -4.18501191119112 -3.31515444954495  0.51987287928793
 6 -3.48379274347435 -3.69698578317832  1.84587576727673
 8 -3.71794544914491 -3.12750598339834  2.93063677897790
 8 -2.53177452535254 -4.61578973147315  1.67530561856186
 6 -1.98093073157316 -5.01674214351435  2.92801413841384
 6  2.64149792639264 -0.67288654635464 -1.21793716861686
 6  4.05955927832783 -0.52725657505751 -0.63192572127213
 6  4.97906151355135  0.25997932243224 -1.07469736993699
 6  5.03875129172917  1.05851038733873 -2.30397748884888
 6  6.35348180578058  0.36319512641264 -0.31262794899490
 6  7.57122486138614 -0.31119300120012 -1.08851852055206
 6  8.86797587998800 -0.27052678617862 -0.13894648884889
 6  10.24074496749675 -0.57738483678368 -0.90884727912791
 6  10.19821700790079 -2.10797013191319 -1.42768442994299
 6  11.43384450155015 -0.23214410501050 -0.09393919521952
 6  12.83538070707071 -0.35769228512851 -0.84386492629263
 6  13.93116880468047 -0.11686845004500  0.07345455845585
 6  15.26774211821182 -0.15150776247625 -0.55385843614361
 6  15.70256435863586 -1.58772155795580 -0.95328260806081
 6  16.39541279527953  0.51256564266427  0.38360754545455
 6  17.90454615891589  0.49832795859586 -0.22357063696370
 6  18.69249464896490  1.26592843964396  0.80329269096910
 6  20.24692237203720  1.37453319791979  0.44879448304831
 6  20.46239646854685  2.15502115011501 -0.83252907430743
 6  21.07676555065507  2.06126049544954  1.49861656325633
 1 -4.03719397789779  3.71108949064907  1.63566808780878
 1 -10.29019277097710  3.87470505440544 -0.38859316191619
 1 -10.26404566636664 -2.56620667536754 -1.02213576107611
 1 -2.71561025172517 -1.10148981268127  1.91626886548655
 1 -2.39379901790179  1.74076256485649  1.20314468096810
 1 -2.09850357365737  0.96602209120912  3.83923413681368
 1 -2.94664945114511  2.26028548514851  3.54325889338934
 1 -3.67553853505351  0.74923929162916  3.68327221172117
 1 -2.17405993289329 -1.49665558595860 -0.40954594059406
 1 -2.29403360556056  0.10485257655766 -0.72478758035804
 1 -0.31884897889789  0.41523944744474  0.92130438233823
 1 -0.19274522822282 -1.21441441684168  1.43452632853285
 1 -4.78927109480948  6.17246242134213  0.55093687588759
 1 -6.37692236253625  6.69778957775778  1.53818850805081
 1 -4.92816604540454  5.45891106250625  2.15405908460846
 1 -9.63282078097810  6.01358429452945  0.58189603410341
 1 -8.92666330673067  8.28504709420942  0.19945053835384
 1 -7.36351138773877  7.60031060026003 -0.36154062466247
 1 -11.98332374517452  3.26015332063206 -1.99317561596160
 1 -13.29619483298330  1.92877851595159 -1.67464098779878
 1 -12.52143910531053  3.08615170057006 -0.33925542354235
 1 -12.12919544764476 -1.69378177637764 -1.31060126802680
 1 -13.27892389598960 -0.36174998799880 -1.46974433143314
 1 -12.93378384458446 -1.89462070127013 -3.72639563726373
 1 -12.37720789478948 -0.18054678057806 -4.11147872287229
 1 -11.19642298989899 -1.10849379337934 -3.58777789328933
 1 -8.88155905180518 -4.88405125342534 -1.89850743214321
 1 -7.98473217421742 -5.83599370757076 -0.45208943704370
 1 -9.64611677747775 -4.97382416941694 -0.01886014221422
 1 -3.64794492649265 -3.39860144464446 -0.44564121712171
 1 -0.92517360736074 -4.37582595989599  3.26084277127713
 1 -2.87347253465347 -4.95533617601760  3.88383560566057
 1 -1.67523895039504 -6.04755893299330  2.71541824472447
 1  2.44944961606161 -1.74662435233523 -1.75883996029603
 1  2.36324802500250 -0.02637971957196 -2.01910393019302
 1  4.04417364166417 -1.00936894309431  0.25846822302230
 1  3.99753068936894  1.33991508780878 -2.82652599489949
 1  5.51201449984999  2.03747813801380 -2.10715507010701
 1  5.45524084688469  0.50800113031303 -3.09380067936794
 1  6.59990301360136  1.45757198489849 -0.06509901220122
 1  6.13697704570457  0.00423717481748  0.57969897699770
 1  7.32544628672867 -1.28600967266727 -1.13903803250325
 1  7.87292882388239  0.27352422892289 -2.11424157105711
 1  8.83263936113611  0.81756437293729  0.18801276377638
 1  8.82510033283328 -0.83283163856386  0.65808042664266
 1  9.99817152865287  0.06248101440144 -1.89628345894589
 1  9.10332682908291 -2.32775982028203 -1.99255421662166
 1  10.84768785348535 -2.39628614121412 -2.02674886088609
 1  10.36779425302530 -2.89570119271927 -0.60432252295230
 1  11.33423818601860  0.80536494399440 -0.00477851445144
 1  11.41735214491449 -0.78599093719372  0.93357083008301
 1  12.63072880858086 -1.34334119551955 -1.21234956985699
 1  12.79370827682768  0.35539501850185 -1.66889525332533
 1  13.61827333053305  0.89144239973997  0.34228088858886
 1  14.00089617991799 -0.58443088038804  1.09065423512351
 1  15.43505589768977  0.46136599699970 -1.43937359685969
 1  15.79953195419542 -2.17785451135114 -0.06871446904690
 1  14.96560409220922 -2.28135632923292 -1.50091781218122
 1  16.32891094969497 -1.54208813741374 -1.65573768256826
 1  16.07036224592459  1.47063613631363  0.51485490649065
 1  16.34032573457346  0.12261586588659  1.27911084278428
 1  18.15021421332133 -0.76933389718972 -0.28509451705171
 1  18.06650673187319  0.95412667116712 -1.16645012891289
 1  18.31838052085208  2.22527442704270  1.06893199409941
 1  18.71991826922692  0.85051866316632  1.88449480108011
 1  20.41698176487649  0.17173360916092  0.37180493089309
 1  19.86257309060906  3.10060904580458 -0.68840911041104
 1  21.39767588148815  2.38120399829983 -1.25104635863586
 1  19.89898073127313  1.54168557085709 -1.71085150845085
 1  21.27632764806481  1.44527383118312  2.44760420202020
 1  21.95738037853785  2.28056658785879  1.00860512671267
 1  20.73242577517752  3.15572924912491  1.87199313051305

