%nproc=4
%Mem=2GB
# td=(NStates=1) CAM-B3LYP/6-31G(d,p) 

TD

0 1
12 -7.13063473277328  0.57298553925393  0.06918496709671
 6 -4.85908478957896 -2.05498761006101  0.56749238413841
 6 -4.72245155145515  2.90441476877688  1.05626908410841
 6 -9.39889447824782  3.11539393879388 -0.45070640364036
 6 -9.59412043964396 -1.76009618461846 -0.72154026902690
 7 -5.09914269586959  0.43885514601460  0.62833035343534
 6 -4.38034563986399 -0.67550817121712  0.90109201200120
 6 -2.97547850905090 -0.38167343944394  1.22600804200420
 6 -3.03211350055006  1.10443157565757  1.60870367676768
 6 -4.30949903660366  1.50533091349135  1.02974923612361
 6 -2.81377916891689  1.30571705900590  3.07845137123712
 6 -1.85776005690569 -0.78652266236624  0.10531985778578
 6 -0.50458871287129 -0.45884411581158  0.50724930783078
 6  0.48249762816282 -0.67609104120412 -0.53656530833083
 8  0.15752630233023 -1.01172257605761 -1.66856613691369
 8  1.77775480048005 -0.50737564436444 -0.13446766686669
 7 -7.00081769026903  2.58412982028203  0.28422357915792
 6 -5.99903703470347  3.36807776167617  0.74146213021302
 6 -6.35154314401440  4.80573120352035  0.82427019151915
 6 -7.73272386778678  4.87584747144714  0.46696360336034
 6 -8.15678623182318  3.41148143944394  0.05603594279428
 6 -5.53541932313231  5.89725081638164  1.40708723392339
 6 -8.54063327572757  6.04760982898290  0.38871889378938
 6 -8.31739093689369  7.32919900420042  0.13889962766277
 7 -9.17773280898090  0.69316579487949 -0.56521822712271
 6 -9.91560321932193  1.82099278187819 -0.75184030823082
 6 -11.24678942184218  1.51572256265627 -1.12249699929993
 6 -11.38106662736274  0.04847872517252 -1.14775404160416
 6 -9.97616750045004 -0.40372886098610 -0.76697600050005
 6 -12.34077231933193  2.37411969286929 -1.32357288818882
 6 -12.32932297799780 -0.86841790399040 -1.73290846804680
 6 -12.48425475747575 -0.89641352655266 -3.20527863326333
 7 -7.29581583368337 -1.43983334493449 -0.12687580628063
 6 -8.26314153645365 -2.22403834333433 -0.49076688258826
 6 -7.76930459795980 -3.54865904880488 -0.50052848184818
 6 -6.50075559755976 -3.63037735323532 -0.02840533263326
 6 -6.18273305150515 -2.25220137463746  0.13596521792179
 6 -8.65615596029603 -4.75442826172617 -0.95085463246325
 6 -5.37916445414541 -4.41765775107511  0.24405290519052
 8 -5.32639400120012 -5.63272592619262  0.04326036083608
 6 -4.19819322932293 -3.39905283938394  0.45043593559356
 6 -3.56188055225523 -3.76406249084909  1.85976715641564
 8 -3.77538119271927 -3.25317855065507  2.94985870117012
 8 -2.73394474237424 -4.81058921142114  1.70875896389639
 6 -1.99031166966697 -5.16938740804080  2.92052338933893
 6  2.84274805140514 -0.68004726242624 -1.06378175307531
 6  4.15043836623662 -0.44134798419842 -0.53940646934693
 6  5.09074268166817  0.49985330983098 -0.99065896609661
 6  5.07004442104210  1.28551308760876 -2.22860995209521
 6  6.39216567416742  0.56745555245525 -0.15347203340334
 6  7.58357609650965 -0.01429331123112 -0.96607627632763
 6  8.90696977937794 -0.19851958545855 -0.07644023822382
 6  10.16254714771477 -0.54721181948195 -0.77220361476148
 6  10.19852703890389 -2.03153248814882 -1.31210287178718
 6  11.46651776887689 -0.23255414601460  0.01372157085709
 6  12.79659682868287 -0.56088260416042 -0.72076261606161
 6  14.02590827862786 -0.12354911811181  0.07365457845785
 6  15.36140148414841 -0.26804941664166 -0.59024207450745
 6  15.77069117131713 -1.69993277907791 -0.82909018881888
 6  16.44265751975198  0.35919030513051  0.45347453215322
 6  17.89338504280428  0.37410553635364 -0.12119039893989
 6  18.68753415291529  1.33554540134013  0.68701106280628
 6  20.25998367816782  1.41439718431843  0.23341294489449
 6  20.33410363926393  2.33645929392939 -0.99408522992299
 6  21.19825769986999  2.00199456885689  1.27095379697970
 1 -3.93511376987699  3.67702608430843  1.52190671167117
 1 -10.07400115181518  3.86072365626563 -0.75091939453945
 1 -10.35809507130713 -2.54568462316232 -1.06434998249825
 1 -2.58939763046305 -0.86413607730773  2.06761400000000
 1 -2.09559919791979  1.82194068266827  1.17145151165117
 1 -1.81955567886789  1.13932942194219  3.35817603100310
 1 -3.30898568476848  2.21397085368537  3.40634520202020
 1 -3.49376035723572  0.59853422112211  3.53038692319232
 1 -1.93225575247525 -1.82590851125113 -0.06943192919292
 1 -1.92789699189919 -0.12982089078908 -0.99826492809281
 1 -0.28115520952095  0.59528745224522  0.67442969486949
 1  0.02586663296330 -1.06400937633763  1.44039691559156
 1 -4.74677684538454  6.23287846294629  0.69869165136514
 1 -6.06172084238424  6.75028482728273  1.79851454065407
 1 -5.11575480428043  5.67609278067807  2.44431811051105
 1 -9.43746124502450  5.91934487058706  0.76346419091909
 1 -9.01882252265226  8.15180376987699  0.33641423472347
 1 -7.28513354995500  7.71328189738974 -0.34000847144714
 1 -12.20638605140514  2.92708001330133 -2.12574887328733
 1 -13.42855806930693  1.92888852695269 -1.50643416711671
 1 -12.52722968436844  3.01287437283728 -0.48620011801180
 1 -12.38318084618462 -1.91665406360636 -1.12124233213321
 1 -13.49582558615862 -0.57075088808881 -1.36023338033803
 1 -13.36568703490349 -1.50615185438544 -3.71924492219222
 1 -12.73132330633063  0.25041631573157 -3.45962353735374
 1 -11.49644299189919 -1.35365830983098 -3.55186430193019
 1 -8.93126402230223 -4.35914876317632 -2.08178575997600
 1 -8.10479418041804 -5.64456456465647 -1.04211843994399
 1 -9.44549671547155 -4.91549833683368 -0.02736099229923
 1 -3.25340547254725 -3.41839342384238 -0.16297295029503
 1 -1.34237532753275 -4.43361173847385  3.41713840084008
 1 -2.70226541394139 -5.37030767316732  3.74205142724272
 1 -1.69983140964096 -5.95036921402140  2.52362906580658
 1  2.66003067416742 -1.68758844874487 -1.80932500880088
 1  2.61521322152215 -0.05372245384538 -2.10284230403040
 1  4.24556378067807 -0.51935994219422  0.56842921912191
 1  4.06286722302230  1.49631072737274 -2.73644698699870
 1  5.28639193759376  2.45476986718672 -2.23389774437444
 1  5.70930625342534  0.87933826402640 -3.02702400170017
 1  6.48671169446945  1.62455868356836 -0.03211571387139
 1  6.14593794179418 -0.06634988388839  0.81463247034703
 1  7.37790153225323 -0.85056612831283 -1.45596972567257
 1  7.60718224922492  0.72390926742674 -1.93393354025403
 1  9.11229732693269  0.76569918641864  0.23015697819782
 1  8.59217704050405 -0.77172552795280  0.69139375797580
 1  10.34836654815482 -0.09524475817582 -1.67870170077008
 1  9.44916141254125 -2.36451349564957 -2.01382634383438
 1  11.20153323802380 -2.29154566716672 -1.54628081408141
 1  10.11359883348335 -2.78744036663666 -0.47912000270027
 1  11.50343510571057  0.71907631513151  0.36341830523052
 1  11.35000541024102 -0.91833417151715  0.82119959295930
 1  12.62867860356036 -1.55464232563256 -0.97355569046905
 1  12.83674258025803  0.02571205020502 -1.71628999279928
 1  13.79717122032203  0.78203145864586  0.53216987748775
 1  14.17582367266727 -0.61057349464946  1.06150131983198
 1  15.29759215131513  0.35105496589659 -1.60101976147615
 1  15.86071807280728 -1.88397512341234  0.30327272967297
 1  14.95179271107111 -2.27052524612461 -1.31809953035304
 1  16.71007906650665 -1.99229315791579 -1.45112722152215
 1  16.36412162186219  1.33911298399840  0.45799922092209
 1  16.42760446244625 -0.22430882658266  1.38717164886489
 1  18.62651184308431 -0.59346631043104 -0.32312832043204
 1  17.74666474767477  0.41497275577558 -1.32034551845185
 1  18.22624130693069  2.25672757235724  0.68985408630863
 1  18.70130640804080  1.02146575787579  1.77276362796280
 1  20.46894696139614  0.40996743254325 -0.12524477407741
 1  20.04076090939094  3.36481546644664 -0.81066133563356
 1  21.25948206210621  2.43541941984198 -1.25591684568457
 1  19.70781161436144  1.89624102640264 -1.83241366466647
 1  21.30199021432143  1.32143144694469  2.29854929652965
 1  22.05334997549755  1.90304883608361  1.08463272947295
 1  20.85939847244725  3.01382505870587  1.52430836203620

