%nproc=4
%Mem=2GB
# td=(NStates=1) CAM-B3LYP/6-31G(d,p) 

TD

0 1
12 -7.13926559585959  0.66561480218022  0.02916096469647
 6 -4.84082296339634 -1.99254136543654  0.57988362326233
 6 -4.88269757605761  2.80820514781478  1.16871032823282
 6 -9.38880346914691  3.10724312371237 -0.33992532553255
 6 -9.52527355495550 -1.68007818281828 -0.78817693269327
 7 -5.08981176277628  0.45169643014301  0.66577409780978
 6 -4.35329293459346 -0.71345196559656  0.73424532733273
 6 -2.91024198539854 -0.48459373147315  1.24824026522652
 6 -3.00176046524652  1.04762589508951  1.60938374477448
 6 -4.35307339403940  1.45746612701270  1.18087434863486
 6 -2.61842963396340  1.32232872017202  3.10756428252825
 6 -1.82717699859986 -0.72051606170617  0.15030435623562
 6 -0.41611986598660 -0.58728696009601  0.63132171507151
 6  0.52027140554055 -0.77788122022202 -0.53060471227123
 8  0.30386093579358 -1.14184558835884 -1.62317159745975
 8  1.84444146914691 -0.49551445824582 -0.09758397849785
 7 -7.02075968446845  2.60492189948995  0.28593375017502
 6 -6.03091022202220  3.40322127602760  0.85024300830083
 6 -6.39198718841884  4.83647427782778  0.82433019751975
 6 -7.78366896229623  4.91672155885589  0.43967087408741
 6 -8.15209576277628  3.51381167246725  0.12128246744674
 6 -5.60483626482648  5.93269436073607  1.34259078427843
 6 -8.69176838923893  6.04704977297730  0.37837785968597
 6 -8.28844804260426  7.25404148844884  0.13064880258026
 7 -9.09320435613561  0.69685616391639 -0.53237494279428
 6 -9.77624928392839  1.84492517511751 -0.61581670587059
 6 -11.20472521542154  1.47170816121612 -1.10224497409741
 6 -11.23145166586659  0.07506138343834 -1.30780004620462
 6 -9.98180806450645 -0.36941542964296 -0.89541884478448
 6 -12.23162140424042  2.52284456535654 -1.46911744264426
 6 -12.39490953665367 -0.72038310051005 -1.68159333653365
 6 -12.36118245024502 -1.17178106330633 -3.18285639103910
 7 -7.20880713281328 -1.32422178377838 -0.09230234893489
 6 -8.20951617391739 -2.17189312881288 -0.49450725662566
 6 -7.81705937343734 -3.57182136503650 -0.50837926692669
 6 -6.49541506350635 -3.50865518101810 -0.10370286238624
 6 -6.14025880408041 -2.18048420292029  0.18019964136414
 6 -8.59242958765877 -4.83847666656666 -0.92814236123612
 6 -5.27569410711071 -4.37772375767577  0.09313781368137
 8 -5.15280664246425 -5.53870652425242  0.05655168996900
 6 -4.12601601160116 -3.27294022812281  0.53737462946295
 6 -3.40320468466847 -3.71711779637964  1.80352153185319
 8 -3.66583023762376 -3.20919415221522  2.93553726902690
 8 -2.64219556745675 -4.74882303480348  1.60621870987099
 6 -2.07458009650965 -5.10504097339734  2.89231056805681
 6  2.79429320592059 -0.74515377307731 -1.20155553045305
 6  4.11548487088709 -0.59051290069007 -0.47405993469347
 6  5.11690529792979  0.28115143964396 -0.88687858805881
 6  4.97209462606261  1.23162769906991 -2.08687577867787
 6  6.38099455705570  0.33422222912291 -0.15938262446245
 6  7.60584832373237 -0.08886076797680 -0.97115678437844
 6  8.78646772917292 -0.02426215971597 -0.09111170537054
 6  10.07804869786979 -0.50498759705971 -0.88128452285229
 6  10.13228041424142 -2.10082941784178 -1.10281194269427
 6  11.38399951705171 -0.30089097969797  0.01096129482948
 6  12.76089325832583 -0.68534505040504 -0.72554309410941
 6  13.88483417121712 -0.25252201540154  0.13605081808181
 6  15.26267161116112 -0.26994960666067 -0.66600965126513
 6  15.69793389558956 -1.69664245004500 -1.12385966576658
 6  16.29628288228823  0.45615000110011  0.29100828552855
 6  17.78934463876388  0.51926005180518 -0.23076135603560
 6  18.64468986848685  1.36602844964496  0.69429179087909
 6  20.12333001280128  1.43802954755476  0.24444404800480
 6  20.25143537243724  2.32570821882188 -0.96622244364436
 6  20.95280315441544  2.04053842324232  1.38486518811881
 1 -3.92188244674467  3.33905228692869  1.52075659665967
 1 -10.12721647334734  3.80763834773477 -0.53796809940994
 1 -10.16272553435343 -2.51028108280828 -1.22717626512651
 1 -2.85930462116212 -1.03130279397940  2.20857809640964
 1 -2.17128676667667  1.64851333993399  1.18012237873787
 1 -1.47065078837884  1.17075256425643  3.29580979437944
 1 -2.95584037023702  2.46258571517152  3.33312788028803
 1 -3.12383336453645  0.54076844454445  3.85687957245725
 1 -2.05732825972597 -1.68016393679368 -0.28079306530653
 1 -2.07650185238524 -0.01192910161016 -0.75938103970397
 1 -0.27744483848385  0.44742266576658  1.07966021792179
 1 -0.30669662336234 -1.50498347374737  1.36551942784278
 1 -4.97951011871187  6.46674184928493  0.69364114631463
 1 -6.28275294559456  6.82162196099610  1.80006469566957
 1 -4.89725295409541  5.37020219161916  1.87133081178118
 1 -9.58341584048405  5.69064200030003  0.45834367886789
 1 -8.78745938633863  8.04014260376038 -0.16693610031003
 1 -7.20616565316532  7.55694626382638  0.01042657205721
 1 -11.77698311111111  3.16593389868987 -2.23987028542854
 1 -13.27725293879388  2.03658929702970 -1.77154067776778
 1 -12.52770973237324  3.02199528492849 -0.56254775277528
 1 -12.42152468056806 -1.57106950515051 -1.14681488938894
 1 -13.15018102170217 -0.18832264526453 -1.29830718771877
 1 -13.28731919811981 -1.48664990419042 -3.54007700540054
 1 -12.06764693869387 -0.26974570047005 -3.74198177317732
 1 -11.60044339193919 -1.79732267626763 -3.47909702520252
 1 -9.10454135003500 -4.73651649995000 -1.89217679907991
 1 -7.91828552955296 -5.55429553775378 -1.07756198429843
 1 -9.34600676647665 -4.87581436843684 -0.25684394059406
 1 -3.30637076907691 -3.15041662616262 -0.07536418941894
 1 -1.35338642864286 -4.32657103440344  3.12335902290229
 1 -2.84048923632363 -5.08196883928393  3.76722394449445
 1 -1.42638406490649 -6.05784996209621  2.92753945684568
 1  2.64542921402140 -1.67728741864186 -1.73699777607761
 1  2.31599329952995 -0.00797787938794 -2.07842986278628
 1  4.06051527582758 -1.06038404460446  0.45435781198120
 1  3.87975891219122  1.71063215951595 -2.22146548884889
 1  5.65633893229323  2.13486787698770 -1.77752210681068
 1  5.53654897769777  0.80883121332133 -2.96404770407041
 1  6.43420644394439  1.33395962366237  0.35156265396540
 1  6.28837218521852 -0.28467171607161  0.75262626972697
 1  7.31843558565857 -1.22415348704870 -1.39794392309231
 1  7.73318484948495  0.56443331983198 -1.86716686358636
 1  9.02878897609761  1.08503111961196  0.15161912441244
 1  8.85373319611961 -0.48471682708271  0.90993561216122
 1  10.34730644214421  0.03188795509551 -1.78819264986499
 1  9.32588908530853 -2.61613865816582 -1.71926688788879
 1  11.14108719341934 -2.40372688528853 -1.59506569256926
 1  10.21948942254225 -2.55657728032803  0.04473238253825
 1  11.32368713091309  0.77062146964696  0.60705266866687
 1  11.19050946064606 -0.96075841394139  0.88021549454946
 1  12.68450418611861 -1.68442530393039 -0.99348768366837
 1  12.76940584658466 -0.07734825582558 -1.70320868466847
 1  13.85808731193119  0.80958421392139  0.65412207270727
 1  14.09413550385039 -0.85054749204920  1.03052822252225
 1  15.14474686678668  0.35716557695770 -1.48157781728173
 1  15.83647564856486 -2.24124084998500 -0.08708630623062
 1  14.78532606440644 -2.33930212381238 -1.64767248764877
 1  16.54782284088409 -1.57424135273527 -1.81461357015702
 1  16.05557076677668  1.43231230393039  0.56711013201320
 1  16.39664136613662  0.01033463776378  1.24093702540254
 1  18.15861505340534 -0.47098406220622 -0.25417142474247
 1  17.67376745794580  0.88571983048305 -1.46712019591959
 1  18.19634831763176  2.39880177977798  0.80598569946995
 1  18.70705698309831  0.66981059235924  1.68331468306831
 1  20.39206927362736  0.43729016481648  0.05362311271127
 1  19.83583041634164  3.27097608250825 -0.57558782828283
 1  21.28402451635164  2.39603548144814 -1.27424867886789
 1  19.45782661586158  1.95313671597160 -1.63901432473247
 1  20.87214723002300  1.61380068386839  2.36748619021902
 1  21.97618225872587  2.15199373057306  1.03743801000100
 1  20.52089462206221  3.05478915511551  1.54406033723372

