%nproc=4
%Mem=2GB
# td=(NStates=1) CAM-B3LYP/6-31G(d,p) 

TD

0 1
12 -7.07772944224422  0.57975621632163  0.13117116571657
 6 -4.78336721782178 -2.03765587688769  0.37784341924192
 6 -4.71467077337734  2.78660298759876  1.13751720892089
 6 -9.40849543834383  3.11253365276528 -0.36604793779378
 6 -9.56177720532053 -1.67221739673967 -0.81206932193219
 7 -5.08598137973797  0.37368862936294  0.69666718711871
 6 -4.26580418571857 -0.77258787918792  0.73706560936094
 6 -2.93304426562656 -0.45317058915892  1.23237867906791
 6 -2.96725701490149  1.02239337183718  1.70309311571157
 6 -4.33996208290829  1.42974335473547  1.09043530473047
 6 -2.90244803580358  1.18271475877588  3.16263979007901
 6 -1.91848612951295 -0.64100811091109  0.04553387918792
 6 -0.46523477747775 -0.49951818321832  0.51642022492249
 6  0.47659703810381 -0.63234666676668 -0.64786643844384
 8  0.18680923062306 -0.91747315111511 -1.75158443874387
 8  1.70961798679868 -0.44710961776178 -0.16574079417942
 7 -7.06773438193819  2.51847325462546  0.26632178897890
 6 -5.99838696969697  3.31319227312731  0.75399338333833
 6 -6.33865185488549  4.73607423782378  0.80144790929093
 6 -7.68069866526653  4.80959084578458  0.36529343634363
 6 -8.09218977217722  3.44081437273727 -0.03515317611761
 6 -5.43299908110811  5.77947903920392  1.35040156535654
 6 -8.58480769316932  5.92821788978898  0.22426244814481
 6 -8.25234443224322  7.30213629792979  0.29107484518452
 7 -9.11220625632563  0.64160063836384 -0.60141184648465
 6 -9.80659231823182  1.83162384498450 -0.69134425862586
 6 -11.19996473937394  1.52790378077808 -1.07649239883988
 6 -11.26566508720872  0.11160503780378 -1.10534980118012
 6 -9.97065694939494 -0.33758224632463 -0.89413871677168
 6 -12.33795203730373  2.45146742764276 -1.28740927182718
 6 -12.43763380908091 -0.69916097829783 -1.69564474167417
 6 -12.23365969796980 -1.09494337953795 -3.18464657005701
 7 -7.24279053115312 -1.44422378397840 -0.12162528122812
 6 -8.31404662696270 -2.28111405090509 -0.54095190109011
 6 -7.86372403990399 -3.61283546644664 -0.40847927692769
 6 -6.55821134313431 -3.59286360186019 -0.06128862096210
 6 -6.16789156735674 -2.18178433293329  0.12115373677368
 6 -8.69810015471547 -4.86835965486549 -0.82078162516252
 6 -5.40589712741274 -4.37953393869387  0.23625212511251
 8 -5.27370873267327 -5.60608326192619  0.29950598539854
 6 -4.21260467046705 -3.31675460956096  0.56404729672967
 6 -3.59088345254525 -3.69449553415342  1.78380956065607
 8 -3.67156081068107 -3.02495572837284  2.87273098839884
 8 -2.79772112001200 -4.75713386588659  1.72915100310031
 6 -2.36421906040604 -5.30986145544554  2.92607394439444
 6  2.74627840444044 -0.46001525922592 -1.18890426532653
 6  4.05388871127113 -0.31380522992299 -0.56351888058806
 6  5.11148475587559  0.44539786428643 -0.93812371257126
 6  4.98287570417042  1.24695923222322 -2.22191928302830
 6  6.43108956655665  0.44055286218622 -0.18020470667067
 6  7.64110184908491 -0.04642652455246 -0.99084875357536
 6  8.92050113251325 -0.13163289678968 -0.16630922512251
 6  10.16632752575257 -0.42815991429143 -0.86720311471147
 6  10.19163634983498 -1.94834416931693 -1.35971763326333
 6  11.41264238133813 -0.23641453205321 -0.03811361266127
 6  12.72255942494249 -0.47572408830883 -0.73297383718372
 6  13.90895658345835 -0.13812057525753  0.26359357235724
 6  15.23755909990999 -0.26277888958896 -0.48302135243524
 6  15.65062916511651 -1.65942872867287 -0.82304958475848
 6  16.35111836583658  0.37107149324933  0.36657584228423
 6  17.85944164846485  0.52679080488049 -0.15345362526253
 6  18.81022642214221  1.39975182198220  0.70686304800480
 6  20.24002168196820  1.42038778337834  0.24290389398940
 6  20.49885011391139  2.15512116011601 -1.10308613001300
 6  21.24413228732874  1.81067543694369  1.39185588718872
 1 -4.00749100760076  3.34451283298330  1.53075759675968
 1 -10.21915566726673  3.76907449134913 -0.54754905750575
 1 -10.33613287508751 -2.19276933163316 -1.12069561706171
 1 -2.77210590129013 -1.25288495219522  2.08362560116012
 1 -2.02516215421542  1.48586707530753  1.36301066756676
 1 -1.90165388868887  1.09539502850285  3.62794300770077
 1 -3.06523130933093  2.38229768636864  3.54912948044804
 1 -3.57813879507951  0.41428579627963  3.86134001850185
 1 -2.02561508840884 -1.70286620702070 -0.36010099609961
 1 -2.03520772297230  0.14127621892189 -0.76459156075608
 1 -0.39457655165517  0.52373029652965  0.89400165206521
 1 -0.12009796349635 -1.15338831423142  1.27009988588859
 1 -4.79918208590859  6.26138131323132  0.64478626082608
 1 -6.06335100540054  6.38079787858786  1.87739242844284
 1 -4.89703293209321  5.19350452185219  2.31666534523452
 1 -9.52950044894489  5.52780571667167  0.09710755525553
 1 -8.95125576597660  8.19303789328933  0.22590318361836
 1 -7.13145818241824  7.57511808100810  0.49958548794879
 1 -11.97978339113912  3.15487279257926 -2.02479877827783
 1 -13.15807102060206  1.95818145624562 -1.72788631233123
 1 -12.68778573997400  2.93811689708971 -0.42131362936294
 1 -12.55349787788779 -1.64661705990599 -1.18764897279728
 1 -13.33682968656866 -0.05350916391639 -1.63454081108111
 1 -12.91114158035804 -1.90998223742374 -3.46611960966097
 1 -12.32359253325333 -0.17549627552755 -3.89577715271527
 1 -11.15310865846585 -1.40194313831383 -3.43725284078408
 1 -9.25598649454946 -4.68332118041804 -1.73028060946095
 1 -8.08812251325133 -5.78871898009801 -0.79560378847885
 1 -9.55462762856286 -4.94402118911891 -0.10292854905490
 1 -3.52008214021402 -3.42102368686869 -0.31935858885889
 1 -1.81685277527753 -4.54566294359436  3.42937962496250
 1 -3.20259544694469 -5.54426506890689  3.52748997109711
 1 -1.76216764326433 -6.09269344644464  2.55414211711171
 1  2.47692236333633 -1.55356504640464 -1.61840591689169
 1  2.50907260746075  0.21642456085609 -2.04731675147515
 1  4.21479070337034 -0.90159816601660  0.36819919611961
 1  4.10120105640564  1.38475957225723 -2.64591793409341
 1  5.30482378077808  2.29449383958396 -2.20270462506251
 1  5.76873219601960  0.96359668986899 -2.94527582688269
 1  6.73592661596160  1.48989521722172  0.04500199789979
 1  6.23556690469047  0.03373012411241  0.73155416251625
 1  7.57638138023802 -1.22112318401840 -1.24822895159516
 1  7.75600713171317  0.69928680518052 -1.73672381928193
 1  9.16607270447045  0.94812742924292  0.32869683218322
 1  8.83584140694069 -0.67811616701670  0.68956357495750
 1  10.12810452195220  0.34050881718172 -1.74774860546055
 1  9.44194069046905 -2.31051809610961 -1.78381334253425
 1  11.15417850255025 -2.17006351895190 -1.84255044104410
 1  10.27961543514351 -2.58617023962396 -0.32934502520252
 1  11.31664642684268  0.80767517501750  0.31580354375438
 1  11.15731614131413 -0.63304564266427  0.82005947894789
 1  12.80072580828083 -1.50694755615562 -0.93559189408941
 1  12.84980388638864  0.06924640364036 -1.56768513231323
 1  13.74374587778778  0.93990724622462  0.36116277677768
 1  13.97891398169817 -0.79817225452545  1.16821199089909
 1  15.12081447354736  0.19821968236824 -1.44985464496450
 1  15.81495349634964 -2.13765049094909  0.21198360076008
 1  14.84006153795380 -2.25818401200120 -1.51241896229623
 1  16.56791485008501 -1.83219714831483 -1.42437454625463
 1  16.09810502020202  1.51133020572057  0.68253167416742
 1  16.30266196819682  0.16524012831283  1.48441137283728
 1  18.32348154005401 -0.48914587838784 -0.37829383698370
 1  17.91000108130813  1.00786204470447 -1.19392287618762
 1  18.16065474827483  2.46899879947995  0.92845794669467
 1  18.91460773817381  0.71701531283128  1.70679703130313
 1  20.30426049274927  0.38854529032903 -0.00564281388139
 1  20.51312814611461  3.28869785468547 -0.97367763726373
 1  21.61217733163316  1.60219609750975 -1.53631488548855
 1  19.88756959015901  1.87139854215422 -1.84279470277028
 1  21.43599361466147  1.26268557235724  2.44207364896490
 1  22.34932957345735  1.88419695089509  0.97948221442144
 1  20.93602613521352  2.83022669886989  1.59734566576658

