%nproc=4
%Mem=2GB
# td=(NStates=1) CAM-B3LYP/6-31G(d,p) 

TD

0 1
12 -7.19349101840184  0.65900414111411  0.05696374497450
 6 -4.87789667076708 -1.92663477477748  0.53614924982498
 6 -4.78293760006001  2.84752908020802  1.20792424962496
 6 -9.44523911271127  3.08761116051605 -0.32718405140514
 6 -9.42258328592859 -1.78984915991599 -1.03435155015502
 7 -5.11571435303530  0.44141540204020  0.71391891229123
 6 -4.34546215151515 -0.70107072747275  0.80156205900590
 6 -2.83277423862386 -0.37498277037704  1.24561000220022
 6 -3.07699798899890  1.06088722122212  1.80166297269727
 6 -4.41904999169917  1.48391877227723  1.26102236343634
 6 -3.05658344934493  1.17338382568257  3.23751727782778
 6 -1.88487276817682 -0.45983999409941  0.07466679247925
 6 -0.48013626762676 -0.34463269466947  0.46855543844384
 6  0.54443382178218 -0.68703213531353 -0.65616726852685
 8  0.28160871057106 -1.21331273507351 -1.75401468176818
 8  1.77979500450045 -0.42473738053805 -0.32105632573257
 7 -7.11708931743174  2.62047345464546  0.37242239903990
 6 -6.10102723372337  3.38750970487049  0.89306729072907
 6 -6.47875586528653  4.74381501190119  0.88624638913891
 6 -7.76791738713871  4.82414230093009  0.46089299629963
 6 -8.15402595579558  3.48203849514951  0.17078741794179
 6 -5.61453723492349  5.89588067936794  1.39503602880288
 6 -8.67279649204920  5.95028009600960  0.47390741264126
 6 -8.28494769256926  7.22191827612761  0.05221095879588
 7 -9.10396543224322  0.59542602090209 -0.55300700600060
 6 -9.86170782978298  1.80404108670867 -0.69030415461546
 6 -11.23198794169417  1.45125611601160 -1.15218996859686
 6 -11.27753627432743  0.06466034333433 -1.20844011021102
 6 -9.90567045074507 -0.37617610571057 -0.84272357525753
 6 -12.23745198729873  2.36124840574057 -1.32973350425043
 6 -12.44805485118512 -0.76842790499050 -1.71892706990699
 6 -12.35601193319332 -1.00556444164416 -3.25578368376838
 7 -7.16312256435644 -1.38702806440644 -0.14944806350635
 6 -8.22503772607261 -2.19184512401240 -0.57843564946495
 6 -7.75104277177718 -3.55971015391539 -0.56661509050905
 6 -6.42968849084909 -3.49948426392639 -0.11376386848685
 6 -6.17817259545955 -2.13646980148015  0.00666228762876
 6 -8.58313865856586 -4.69648246714671 -1.01305085208521
 6 -5.31211774947495 -4.29459544484448  0.22275077497750
 8 -5.16312767456746 -5.57576022962296  0.27614364916492
 6 -4.14360777077708 -3.23490642474247  0.64838573057306
 6 -3.41383574777478 -3.64320040464046  1.96711789148915
 8 -3.77177083168317 -3.17699093189319  2.97959167446745
 8 -2.66143749164917 -4.71151930443044  1.78449653765377
 6 -2.01184382288229 -5.18157862716272  3.02131346834683
 6  2.84514829142914 -0.78225748344834 -1.25455082998300
 6  4.14789811221122 -0.41625547494749 -0.55129765846585
 6  5.14459806720672  0.36580990549055 -1.01153105330533
 6  5.15289270587059  1.17553208950895 -2.19966705780578
 6  6.46412286988699  0.34119292619262 -0.25792247844784
 6  7.62218995789579 -0.29649153105311 -1.01397106580658
 6  8.82927200960096 -0.19595932943294 -0.12945553975398
 6  10.15801669466947 -0.61326842514251 -0.89467586198620
 6  10.00311749794979 -1.97292662756276 -1.40777243874387
 6  11.37289840694069 -0.29270016061606 -0.01749155045505
 6  12.72043921292129 -0.49907642354235 -0.64231477127713
 6  13.93314900270027 -0.19919668286829  0.28197541054105
 6  15.33726907090709 -0.28323093479348 -0.44092714301430
 6  15.66599070127013 -1.72564535033503 -0.77482476227623
 6  16.41326458045804  0.37269165526553  0.49868905360536
 6  17.77559326362636  0.47223534933493 -0.12582086198620
 6  18.85109050855086  1.26433828062806  0.79370173187319
 6  20.29284696449645  1.45921166576658  0.11646124972497
 6  20.23664389328933  2.26507215521552 -1.16002182358236
 6  21.25653352745275  1.98693306270627  1.14232093369337
 1 -4.10597085558556  3.64414279597960  1.39301382238224
 1 -10.05937968966897  3.93037062096210 -0.53269757235724
 1 -10.09982924472447 -2.61009106380638 -1.61017456495649
 1 -2.51419010971097 -1.03411307500750  2.12164940354035
 1 -2.13286292429243  1.86043453205320  1.66419078557856
 1 -2.14741846514651  0.65171066006601  3.59724993839384
 1 -3.17668245444544  2.20906036263626  3.53969853735374
 1 -3.98639962116212  0.67880224792479  3.65372925742574
 1 -1.86162868976898 -1.39545546594659 -0.43824881088109
 1 -2.18372257445745  0.24862695399540 -0.80402550415042
 1 -0.21292838683868  0.64180210371037  0.97114936683668
 1 -0.38789474317432 -1.09560253565357  1.14644752065206
 1 -4.98101026872687  6.36604177927793  0.71688347054705
 1 -6.34553922422242  6.59654945374537  1.67815250445045
 1 -4.81924515331533  5.39574474587459  2.19473315201520
 1 -9.63787128602860  5.70855379147915  0.37023486798680
 1 -9.06997763816381  7.96910550005000  0.01241183448345
 1 -7.21902693929393  7.38652922212221  0.06723225262526
 1 -12.09037445024502  2.73137044234423 -2.51038733713371
 1 -13.41329654315431  2.02383802190219 -1.16894041774177
 1 -12.11687864926493  3.46695978137814 -0.58233973197320
 1 -12.47330985908591 -1.78070046824682 -1.14038424632463
 1 -13.20416642024203 -0.09718353135314 -1.63018037503750
 1 -13.24918538473847 -1.59661090029003 -3.64236723442344
 1 -12.39375954995500 -0.15329405530553 -3.92429000400040
 1 -11.47775112271227 -1.54947789178918 -3.49735885138514
 1 -9.15059595549555 -4.52307515581558 -2.00896847824782
 1 -7.77577127812781 -5.62704281248125 -1.28505273337334
 1 -9.35351751755175 -5.11616840384039 -0.45976423262326
 1 -3.34347447944794 -3.52097368186819 -0.19616626962696
 1 -1.63402449244925 -4.29641801910191  3.54160084708471
 1 -2.72522771017102 -5.81478212061206  3.77551477357736
 1 -1.30581200770077 -5.96256043314331  2.44655135803580
 1  2.68959363046305 -1.83876356625663 -1.76686076237624
 1  2.47284898509851  0.04770768916892 -2.02154417421742
 1  4.39993921822182 -0.89603760996100  0.39153152935294
 1  4.24142507880788  1.27510860716072 -2.74846818911891
 1  5.20497379577958  2.21242563276328 -1.80753510811081
 1  5.93058838163816  1.14921525172517 -3.10869216851685
 1  6.76944996829683  1.39386561426143 -0.06934943724372
 1  6.42705605360536 -0.13285653455346  0.72900390749075
 1  7.38791253335333 -1.31703277497750 -1.27889201790179
 1  7.57944947594760  0.27162403890389 -1.72104225112511
 1  8.90511660886088  0.92740535703570  0.43285724822482
 1  8.66055387818782 -0.80302865826583  0.70112473107311
 1  10.01654336583658  0.02150691699170 -1.83759759035904
 1  9.29988648504851 -2.13073011731173 -2.31545650685069
 1  10.93730681538154 -2.41681819441944 -1.97563374937494
 1  9.86379385298530 -2.76409803240324 -0.66779887058706
 1  11.44937970017002  0.90304471197120  0.39063102650265
 1  11.18589899959996 -0.92297463556356  0.92411988498850
 1  12.70374611031103 -1.38584544594459 -1.15994432933293
 1  12.76665557155716  0.22162164116412 -1.44432279607961
 1  13.84794629782978  0.89552280778078  0.78753541404140
 1  13.96803289358936 -0.91873431073107  1.13374854455446
 1  15.28440083218322  0.38676853725373 -1.32353201270127
 1  15.75488748974898 -2.43953067896790  0.20572297469747
 1  14.99074660646065 -2.01882007560756 -1.57074479487949
 1  16.52148020662066 -1.78010193879388 -1.29255136393639
 1  15.86414162386239  1.31334040674067  0.63023644464446
 1  16.42096379837984 -0.11408780448045  1.52690562226223
 1  18.12424161606161 -0.51883884768477 -0.44595060266027
 1  17.65580566176618  1.11437269576958 -1.02851633553355
 1  18.31819050185019  2.28297019661966  1.00867596849685
 1  19.22670894829483  0.96000961226123  1.84586093769377
 1  20.51571163786378  0.65055149094909  0.09657740814081
 1  19.98341517481748  3.24651363626363 -0.62836310581058
 1  21.17375348924892  2.09711558945895 -1.66978823282328
 1  19.44741557475747  2.17623902620262 -1.98899932323232
 1  21.21921193649365  1.70233953775377  2.14671411301130
 1  22.37379201970197  2.19140767196720  0.78393265946595
 1  20.92409494209421  2.98733240944094  1.40909684088409

