%nproc=4
%Mem=2GB
# td=(NStates=1) CAM-B3LYP/6-31G(d,p) 

TD

0 1
12 -7.11976364566457  0.53019125982598  0.07236528512851
 6 -4.86620550165016 -2.01406351765177  0.54192982788279
 6 -4.75398470477048  2.75328965626563  1.25328878607861
 6 -9.29734432323232  3.15558795819582 -0.39752108510851
 6 -9.47960898849885 -1.66382655765577 -0.84512262726273
 7 -5.11621440304030  0.42572383288329  0.80554807520752
 6 -4.32663026832683 -0.75826644704470  0.96964886768677
 6 -2.94883584478448 -0.43133840594059  1.37575301650165
 6 -3.04152444164416  1.04988612111211  1.77185999239924
 6 -4.34444253095310  1.45919630003000  1.17392365356536
 6 -2.97827561856186  1.28442492979298  3.36967049314931
 6 -1.95517979887989 -0.71416542664266  0.21820114591459
 6 -0.46710496449645 -0.45681391279128  0.46737532043204
 6  0.50442982138214 -0.68640207230723 -0.69289094089409
 8  0.22568311801180 -0.99439084288429 -1.82306158645865
 8  1.80745777077708 -0.47701260806081 -0.16514073417342
 7 -7.07926553505350  2.55516692399240  0.32503766056606
 6 -6.06243337433743  3.30596155005501  0.80467845184518
 6 -6.31592958265827  4.72038266866687  0.85745350985099
 6 -7.57847844324432  4.93934382108211  0.32599950695070
 6 -8.06852740594059  3.54227451875188  0.09256959615962
 6 -5.39434521572157  5.81726281758176  1.24750127532753
 6 -8.43302251465147  6.05581064906491  0.24267428932893
 6 -8.01715091289129  7.30462654695470 -0.13908817111711
 7 -9.09850488618862  0.64799127742774 -0.48748045334533
 6 -9.81193285228523  1.86659734233423 -0.70815593979398
 6 -11.21289603250325  1.49858084848485 -1.14038878847885
 6 -11.24090261096110  0.16296017331733 -1.22035130133013
 6 -9.95688557225722 -0.29076756485649 -0.86036533943394
 6 -12.27524576667667  2.51265354625463 -1.30120065096510
 6 -12.39523956965697 -0.70522158435844 -1.76704188138814
 6 -12.26187251925193 -1.10860474567457 -3.17047515291529
 7 -7.19864611671167 -1.43387274887489 -0.10630374907491
 6 -8.27861308360836 -2.22323826332633 -0.47089489538954
 6 -7.89816748424842 -3.63373755665567 -0.52849127812781
 6 -6.53871939393939 -3.60276459195920 -0.08959145124512
 6 -6.16990176837684 -2.21650780528053  0.24281590299030
 6 -8.62286263096310 -4.82136495539554 -0.84064361136114
 6 -5.38254479217922 -4.32382836813681  0.22194069396940
 8 -5.16749811161116 -5.53820647424742  0.18785482028203
 6 -4.21502491249125 -3.38056099019902  0.66491738373837
 6 -3.73890825502550 -3.74683076767677  1.95098627832783
 8 -3.85708936353635 -3.24826805960596  3.01602531783178
 8 -2.83673502140214 -4.83177132963296  1.63010109810981
 6 -2.14679731823182 -5.35717618691869  2.85642697969797
 6  2.67904168076808 -0.64133339103910 -1.20663603850385
 6  4.13873719611961 -0.51983583298330 -0.64044657335734
 6  5.16802040944094  0.21780510501050 -0.98817871807181
 6  5.05302271887189  1.29644418071807 -2.11278836993699
 6  6.44714117171717  0.34648345524552 -0.23315000120012
 6  7.61966970587059 -0.12690457235724 -1.05954562326233
 6  8.96148523092309 -0.02909264276428 -0.22715530973097
 6  10.15256614961496 -0.44864196249625 -1.07424381878188
 6  10.06884407060706 -1.77862719761976 -1.58499016051605
 6  11.38759987708771 -0.34372526312631 -0.03784358565857
 6  12.76701387038704 -0.59764628052805 -0.64504504430443
 6  13.93510919871987 -0.17956471967197  0.18799601260126
 6  15.30551589558956 -0.10434304600460 -0.48300135043504
 6  15.60406450865086 -1.45375816161616 -1.02034931473147
 6  16.36523977797779  0.50666505260526  0.48037722242224
 6  17.72556826112611  0.58192631843184 -0.21770004990499
 6  18.83463886338634  1.34926677347735  0.72907526922692
 6  20.24620230003000  1.45900164476448  0.40191979557956
 6  20.32039226812681  2.09187483548355 -0.96908272967297
 6  20.97846572067207  1.98996336573657  1.45728242984298
 1 -4.04547480598060  3.27790617231723  1.81746626762676
 1 -10.08264201590159  3.97341492539254 -0.59616391899190
 1 -10.35571483328333 -2.37740779547955 -1.14678822632263
 1 -2.43885257595760 -1.21765142884288  2.21669890849085
 1 -2.14498413641364  1.49200768936894  1.19210357685769
 1 -1.84173789708971  1.03123861286129  3.46939715311531
 1 -3.26996178237824  2.32605206180618  3.67430199769977
 1 -3.55765674687469  0.60842521022102  4.08089197369737
 1 -2.10050257715772 -1.68090401080108 -0.45473045904591
 1 -2.23349755195520  0.14120621192119 -0.52280738233823
 1 -0.23296039003900  0.58644656815682  0.90826307820782
 1  0.05803985028503 -1.27604057945795  1.40422329822982
 1 -4.67146931463146  6.14508968406841  0.24931671387139
 1 -5.99217388768877  6.64793459225923  1.71451614081408
 1 -4.69994322312231  5.58691386278628  2.12332601130113
 1 -9.51892939183918  5.98837177327733  0.53041088558856
 1 -8.98125876627663  7.95197378687869  0.16811740504050
 1 -7.15763079967997  7.70660122932293 -0.74508897949795
 1 -11.89641505430543  3.19316662196220 -2.09305560396040
 1 -13.27284249774977  2.07161279937994 -1.72523604730473
 1 -12.23428038943895  3.06314940034003 -0.18592009000900
 1 -12.55128765686569 -1.61678407660766 -1.24770497839784
 1 -13.24978098169817 -0.22815662866287 -1.58115547254725
 1 -13.10632109830983 -1.51286252545255 -3.45095809350935
 1 -12.25973614761476 -0.26367509340934 -4.06055363036304
 1 -11.49229257685769 -1.79464240824082 -3.24045316081608
 1 -9.04346524242424 -5.00509335763576 -1.92084966636664
 1 -7.79723342434243 -5.62802291049105 -0.78415264336434
 1 -9.34526669246925 -5.07283407040704 -0.17404566076608
 1 -3.53401353335334 -3.44606619111911 -0.32365901890189
 1 -1.21340243024302 -4.68582695999600  3.09578626562656
 1 -3.08916410381038 -5.28260890329033  3.49709693179318
 1 -1.63212463896390 -6.33281745884589  2.48191489438944
 1  2.49305397649765 -1.67751744164416 -1.57904198049805
 1  2.35645734593459  0.20507342574257 -2.12507452725273
 1  4.39089831413141 -1.29915792199220  0.19159153535354
 1  4.05069600590059  1.35849694599460 -2.49260260256026
 1  5.36534983338334  2.31970636083608 -1.89569392399240
 1  5.86915223802380  1.13621395159516 -2.92808410771077
 1  6.65325834913491  1.26886311401140  0.03120061776178
 1  6.20896424442444 -0.24192744164416  0.75360636773677
 1  7.53867760986099 -1.34734580628063 -1.43701783048305
 1  7.70034156515652  0.26260313681368 -1.84983513041304
 1  8.95981207840784  1.09809242574257  0.17869183168317
 1  8.86965478827883 -0.58612696809681  0.73797841644164
 1  10.42571428292829  0.12067683398340 -1.91985581618162
 1  9.14927142354236 -2.05996304060406 -2.20168512971297
 1  10.74186727142714 -2.11359787238724 -2.35701188718872
 1  10.15967344094410 -2.45814743734373 -0.77465955665567
 1  11.48183294549455  0.67884229172917  0.38890085348535
 1  11.37931834153415 -1.10376271437144  0.89221669466947
 1  13.01970770647065 -1.70665752715271 -0.94361269616962
 1  12.77878678467847 -0.09341986298630 -1.62075043884388
 1  13.71592309550955  0.86988024352435  0.47360402090209
 1  14.16694278457846 -0.69344178147815  1.13693886358636
 1  15.15640803290329  0.45518537893789 -1.40030969046905
 1  15.88011001200120 -2.23019974587459 -0.17634523212321
 1  14.83926145794579 -2.04779297289729 -1.62776049644964
 1  16.47954601320132 -1.45916984558456 -1.64817692649265
 1  16.18184339403940  1.36230530323032  0.64268768976898
 1  16.57182888488849 -0.07231362706271  1.33022595429543
 1  18.02904209610961 -0.31796876067607 -0.20981698929893
 1  17.75081516271627  1.24765602410241 -1.09215269916992
 1  18.22167084988499  2.28485038463846  0.96920202110211
 1  18.80069634703470  0.82039565086509  1.59396574817482
 1  20.50442050875087  0.37190362616262  0.37667541794179
 1  19.61635846914692  3.07484646954695 -0.98295856535654
 1  21.46470258415842  2.03587946584658 -1.29600085408541
 1  19.79300013321332  1.43023442574257 -1.77588801210121
 1  21.10457047234723  1.41039034283428  2.22203164476448
 1  22.08860350085008  2.24283281448145  1.18388265446545
 1  20.70459299189919  2.94032770897090  1.75684161536154

