%nproc=4
%Mem=2GB
# td=(NStates=1) CAM-B3LYP/6-31G(d,p) 

TD

0 1
12 -7.19723139243924  0.51323956465647  0.23195124372437
 6 -4.85519440054005 -1.90679279057906  0.49960559545955
 6 -4.77577688398840  2.83942827012701  1.11010446764676
 6 -9.46415100390039  3.15873827322732 -0.37103843684368
 6 -9.66386741434143 -1.75123529852985 -0.78455657065707
 7 -5.02047482908291  0.44846610711071  0.72570009040904
 6 -4.38698630393039 -0.75611623202320  0.73626552935294
 6 -2.79506046724672 -0.32007727982798  1.15365080628063
 6 -3.00637092629263  1.07722885538554  1.68333113951395
 6 -4.33081116781678  1.51575195559556  1.11361762296230
 6 -3.01511930293029  1.22228871617162  3.20170369646965
 6 -1.95756003690369 -0.52677668776878 -0.01155182938294
 6 -0.48602685668567 -0.43729196059606  0.38472705560556
 6  0.58788816721672 -0.66387982008201 -0.64366601840184
 8  0.24787533723372 -0.97439884368437 -1.74995427572757
 8  1.80937796279628 -0.55606051285128 -0.22025624572457
 7 -7.14664227272727  2.61345275257526  0.38911406820682
 6 -6.01588871987199  3.35839679357936  0.84079206320632
 6 -6.31292928262826  4.82032266266627  0.72424018851885
 6 -7.63995459085909  4.81023090979098  0.33685059205921
 6 -8.14130468366837  3.47142743404340  0.13723406260626
 6 -5.39309509070907  5.94053514481448  1.13154968016802
 6 -8.50898011041104  6.03522859085909  0.30890091199120
 6 -8.05018421622162  7.28682476677668 -0.19641390369037
 7 -9.19650468616862  0.67534401270127 -0.38252995829583
 6 -9.91751341034103  1.82375305790579 -0.51332645684568
 6 -11.25079982288229  1.47867885828583 -0.88942369196920
 6 -11.37963648434843  0.09685356265627 -1.09576884308431
 6 -9.98655853955396 -0.35436392449245 -0.70507981088109
 6 -12.33986222832283  2.46590887178718 -1.20025055595560
 6 -12.42389243494349 -0.76475753795380 -1.63067824502450
 6 -12.30629696169617 -1.29476336153615 -3.03999210461046
 7 -7.26978323042304 -1.40817017861786 -0.03582670137014
 6 -8.34344956725673 -2.24848078757876 -0.41997980388039
 6 -7.94292195969597 -3.63901808470847 -0.58182661166117
 6 -6.55581110311031 -3.53239755525553 -0.08257074917492
 6 -6.25329010721072 -2.14344049854985  0.09045066646665
 6 -8.66710705540554 -4.92103492239224 -0.72824237123712
 6 -5.37255379307931 -4.31215720102010  0.10366886678668
 8 -5.36514787658766 -5.54097675127513  0.12438847364736
 6 -4.13475688568857 -3.31925485958596  0.53675456745675
 6 -3.55754011821182 -3.66763284788479  1.71830301000100
 8 -3.75010866546655 -3.13454668746875  2.83924764006401
 8 -2.61776312421242 -4.67010516301630  1.51627971597160
 6 -1.92953559205921 -5.15297576687669  2.69775111211121
 6  2.79216299289929 -0.65261451915192 -1.23528890379038
 6  4.14066738913891 -0.49639348874887 -0.61815434413441
 6  5.13214682208221  0.34462778727873 -0.90582048224822
 6  5.03755117171717  1.15276981328133 -2.18652574367437
 6  6.41791824942494  0.32376118301830 -0.23297998419842
 6  7.60055779467947 -0.27369925182518 -1.03561323002300
 6  8.89777886028603 -0.25294502800280 -0.19320191439144
 6  10.25926681968197 -0.69992709100910 -0.98090448484848
 6  10.04934212041204 -2.14929426432643 -1.41270293179318
 6  11.44862597969797 -0.47924881548155 -0.04870467176718
 6  12.74476164516452 -0.59542605850585 -0.64643518331833
 6  13.97894358215822 -0.15114187738774  0.19545675867587
 6  15.37221256525653 -0.13892650435043 -0.53918696899690
 6  15.83287738993899 -1.59557234303430 -1.01724900470047
 6  16.40369362336233  0.40361474757476  0.47788697339734
 6  17.74959066336634  0.86793491929193 -0.11596987688769
 6  18.73167856735674  1.31075292209221  0.90626298799880
 6  20.14809248904891  1.43257900250025  0.32848245184518
 6  20.29027925682568  2.46511215921592 -0.77812363376338
 6  21.14615248934894  1.92585695509551  1.46290299189919
 1 -4.22520277877788  3.60085846754675  1.68680320132013
 1 -10.16195994769477  4.05865344924492 -0.44382868546855
 1 -10.20669993179318 -2.51983203790379 -1.18111165866587
 1 -2.47377606830683 -1.04735439913991  1.93643088168817
 1 -2.21660129812981  1.75555404400440  1.10400476697670
 1 -2.11558528182818  0.84160964996500  3.61590180358036
 1 -3.21793657985799  2.29862931953195  3.66471103860386
 1 -3.66022700390039  0.49513388108811  3.61128501300130
 1 -2.18051057795780 -1.42227814821482 -0.49815480148015
 1 -2.11620582278228  0.28062015331533 -0.78161326292629
 1 -0.26121321532153  0.53028095159516  0.71021327322732
 1 -0.39570552425242 -0.98166114151415  1.27562043794379
 1 -4.82756492419242  6.18807398249825  0.30470225242524
 1 -5.97180185048505  6.74487428622862  1.49746443564356
 1 -4.55732896169617  5.47728289968997  1.95150882958296
 1 -9.58220571947195  6.05073800990099  0.77329517401740
 1 -8.66062670307031  8.18499708920892 -0.30688009470947
 1 -6.86768180478048  7.25157572677268 -0.58252272287229
 1 -12.05713112591259  3.26405371067107 -2.03036933533353
 1 -13.29503471697170  2.06250188828883 -1.28133165686569
 1 -12.49722668406841  3.25667875327533 -0.41260275827583
 1 -12.63812634073407 -1.55015741394139 -0.78083829172917
 1 -13.39157516111611 -0.10123393639364 -1.44343170017002
 1 -13.12497296349635 -1.84830606980698 -3.56785978367837
 1 -12.03849402340234 -0.61618034393439 -3.83424099909991
 1 -11.51771511911191 -1.96825976997700 -3.25690480598060
 1 -9.38511940784078 -4.78090093839384 -1.75687326872687
 1 -8.05602930393039 -5.69467957615762 -0.90690491859186
 1 -9.42542470827083 -5.06831361836184  0.10919266306631
 1 -3.51089122112211 -3.30669225372537 -0.32580923392339
 1 -1.21399248924892 -4.33769214651465  3.10327701470147
 1 -2.58162334973497 -5.48560920332033  3.46713393549355
 1 -1.28900032653265 -6.01767594469447  2.25058176107611
 1  2.74293896499650 -1.69955964586459 -1.60991506780678
 1  2.55166686688669  0.01048396679668 -1.94150617041704
 1  4.13657288158816 -0.94501250745074  0.30809318551855
 1  4.10677161346135  1.22067316361636 -2.61392473477348
 1  5.49943324172417  2.30719510971097 -2.10880523512351
 1  5.86433175597560  0.89878020822082 -2.95844714401440
 1  6.62474549784978  1.31072730043004  0.25749324702470
 1  6.42824617261726 -0.10327357625763  0.77146815391539
 1  7.38297203930393 -1.43867493919392 -1.26582071077108
 1  7.93782531353135  0.42640951745174 -1.87873802070207
 1  9.15969206640664  0.62310492699270  0.27618158065807
 1  8.74071189398940 -0.86718507390739  0.77754237283728
 1  10.44413612511251 -0.00917615131513 -1.81460529112911
 1  9.23202969936994 -2.28522556685669 -2.12610757195720
 1  11.00454353905391 -2.57475398799880 -1.73724991099110
 1  9.80378785238524 -2.77328895149515 -0.50269235993599
 1  11.33405816801680  0.39792419991999  0.30691265466547
 1  11.39690009970997 -1.29901223932393  1.04280175317532
 1  12.77407314301430 -1.62115897729773 -1.01008934383438
 1  12.95089399539954  0.01561104010401 -1.63718208200820
 1  13.40797230043004  0.86476973247325  0.48126478697870
 1  14.09403549384938 -0.91052348964896  1.04862003170317
 1  15.50865325742574  0.47292715311531 -1.25016467596760
 1  15.52398439943994 -2.34877160306031 -0.31270886848685
 1  15.26309384118412 -1.56042423602360 -2.06026374677468
 1  16.96306436503651 -1.54947887648765 -1.37881999079908
 1  16.12919812951295  1.30076914961496  1.05952937393739
 1  16.73808551055106 -0.56131252695270  1.24471740344034
 1  18.24432362426243  0.13446648284828 -0.73262927052705
 1  17.74301438263826  1.76427768626863 -0.80947443134313
 1  18.36371505430543  2.39502140174017  1.11387648854885
 1  18.84857113451345  0.76055966726673  1.89923627522752
 1  20.71123118981898  0.56753318911891 -0.14258650825083
 1  20.09080591389139  3.37321630653065 -0.44204447394739
 1  21.28308442234223  2.50741661956196 -0.91894314831483
 1  19.82871370457045  2.19340074237424 -1.68031845514551
 1  21.14375439073907  1.06423572737274  2.22930237183718
 1  22.09281392189219  1.79836836803680  0.82153641984198
 1  20.79443197579758  2.90644432063206  1.89551548274827

