%nproc=4
%Mem=2GB
# td=(NStates=1) CAM-B3LYP/6-31G(d,p) 

TD

0 1
12 -7.17585925522552  0.61564980568057  0.03237128572857
 6 -4.74938381948195 -1.96712882418242  0.49871550645064
 6 -4.81727103340334  2.84605893319332  1.21320477767777
 6 -9.43824841364136  3.01902430183018 -0.35740707370737
 6 -9.50779180678068 -1.70292046704671 -0.86614472947295
 7 -5.11270405200520  0.46486774727473  0.75919343974397
 6 -4.32718032333233 -0.66945756615662  0.72127403020302
 6 -2.93911487268727 -0.30768604070407  1.15409085028503
 6 -2.96620690989099  1.12293342584258  1.67019982638264
 6 -4.41682976967697  1.51002138253825  1.19090535173517
 6 -2.90019781078108  1.27272375967597  3.06586011211121
 6 -2.01581586248625 -0.61603561366137  0.08840816661666
 6 -0.48456671067107 -0.42809104050405  0.56488507140714
 6  0.49938931733173 -0.68263169526953 -0.49979163096310
 8  0.17230778047805 -0.95157656145615 -1.61178045834583
 8  1.70949797479748 -0.43527843464346 -0.03018723882388
 7 -7.04476208470847  2.61504291159116  0.29983514031403
 6 -6.09229636063606  3.34771572547255  0.77767575157516
 6 -6.41509949964997  4.73960459085909  0.92173993849385
 6 -7.79433002840284  4.80482036873687  0.49303621062106
 6 -8.16967752095209  3.38680897219722  0.14546488568857
 6 -5.62236801800180  5.84517560886089  1.33193971917192
 6 -8.65622483488349  6.00377544554455  0.39588961086109
 6 -8.33002220002000  7.21932801710171  0.14906064376438
 7 -9.06619165486549  0.65345182348235 -0.59243094839484
 6 -9.82894455345535  1.78959964256426 -0.65702082628263
 6 -11.18049279217922  1.41558254865487 -1.15965071467147
 6 -11.22402092279228  0.15755963326333 -1.37093635983598
 6 -9.89964984868487 -0.35676416451645 -1.01181048394840
 6 -12.25634387648765  2.34599688058806 -1.42581311221122
 6 -12.32381242694269 -0.79400046224622 -1.72804798199820
 6 -12.31497782978298 -1.17520140534053 -3.29627773317332
 7 -7.16352260436044 -1.35234459605961 -0.14661778047805
 6 -8.17283250555056 -2.27930386988699 -0.65080288618862
 6 -7.83066073357336 -3.62407659055906 -0.40612904190419
 6 -6.43450897289729 -3.55417973347335 -0.07059955205521
 6 -6.18222300050005 -2.16996315081508  0.10427204860486
 6 -8.72177252195219 -4.82891571047105 -0.68161770877088
 6 -5.31503804150415 -4.30503648894890  0.23917241714171
 8 -5.20768213001300 -5.52825547914791  0.19659569436944
 6 -4.08273168316832 -3.29822275637564  0.50939183118312
 6 -3.42643700790079 -3.71991807640764  1.80006118581858
 8 -3.59347300190019 -3.28448168096810  2.91968568386839
 8 -2.70096144404440 -4.80831898439844  1.62652074007401
 6 -2.10386302480248 -5.23960442974297  2.89731106810681
 6  2.77373114971497 -0.52431168886889 -1.13111848674867
 6  4.09159248164817 -0.31220506990699 -0.50755328402840
 6  5.09368297569757  0.46268959345935 -0.92496239643964
 6  5.03502091869187  1.34075861216122 -2.18800589168917
 6  6.39889634723472  0.55869467636764 -0.09635632183218
 6  7.60578831773177  0.02227034513451 -0.88003767246725
 6  8.83645272767277 -0.09086882038204  0.00578798459846
 6  10.09035992899290 -0.61316841514151 -0.71984837923792
 6  10.00435762196220 -2.09957929282928 -1.23446510801080
 6  11.44403552065206 -0.33994488508851  0.04001420012001
 6  12.74224139313931 -0.44331084698470 -0.67222776257626
 6  13.99440512831283 -0.27932469566957  0.16520373337334
 6  15.39617496149615 -0.21965457715772 -0.60158320862086
 6  15.67362146434644 -1.72961574737474 -0.97093437323732
 6  16.41952520652065  0.49459384548455  0.32300148484848
 6  17.80699640394040  0.53368149394939 -0.34801308120812
 6  18.74883028252825  1.23127497429743  0.64814717641764
 6  20.22018969876988  1.30715646024602  0.12108171177118
 6  20.47326755565556  2.09892554055406 -1.09180500190019
 6  21.11406928102810  1.81257562696270  1.32188889048905
 1 -3.85507576607661  3.29048743044304  1.60866538753875
 1 -10.09089284098410  3.90348793269327 -0.32691699429943
 1 -10.08187744954495 -2.55834588928893 -1.06174972247225
 1 -2.54869356005601 -0.91920158385839  1.95143238183818
 1 -2.35224486248625  1.81131962056206  1.05329969646965
 1 -1.84867859115912  0.87697318631863  3.50371058445845
 1 -3.01394618081808  2.28741819841984  3.38212277977798
 1 -3.72109309050905  0.73428779647965  3.58370225472547
 1 -2.01077360426043 -1.58432435283528 -0.25200018601860
 1 -2.09069327152715  0.12344443574357 -0.69547464906491
 1 -0.07366446044604  0.35561348484848  1.08966121802180
 1 -0.34451040474047 -1.22229520492049  1.13626650255026
 1 -4.76091825952595  5.96302147724772  0.41700348254825
 1 -6.16794146444644  6.90324012281228  1.47185187438744
 1 -5.07060028882888  5.68488365976598  2.44011769046905
 1 -9.77602510141014  5.86370930703070  0.37136498099810
 1 -9.26157679807981  8.03690227972797 -0.17484689138914
 1 -7.26249128572857  7.57828839803981  0.15912144154415
 1 -12.00793620642064  2.99136644194419 -2.39767606600660
 1 -13.17517273077308  2.00172581068107 -1.79530305400540
 1 -12.40790775217522  3.20102318771877 -0.63000449844985
 1 -12.21250377847785 -1.79408180638064 -1.05501570947095
 1 -13.24903090669067 -0.22708652165217 -1.60743810081008
 1 -13.05004547074707 -1.81594283348335 -3.32071506920692
 1 -12.56036621062106 -0.19488821472147 -3.70435801080108
 1 -11.33023637123712 -1.53666661066107 -3.57672678817882
 1 -8.93399429532953 -5.05999884818482 -1.78530611201120
 1 -8.40387408840884 -5.85583569176918 -0.07490171827183
 1 -9.68159032483248 -4.44169095609561 -0.23863211941194
 1 -3.43671380338034 -3.49441102560256 -0.46570322332233
 1 -1.75187627762776 -4.44815319261926  3.39303599059906
 1 -3.01772696009601 -5.72637327972797  3.41253847594760
 1 -1.45241666816682 -6.21112528962896  2.57038374127413
 1  2.88794346544654 -1.60987067696770 -1.46204028032803
 1  2.69430113031303  0.14856777517752 -1.82677469726973
 1  4.28522774707471 -1.01034904110411  0.25675805200520
 1  3.90634157045705  1.26087718401840 -2.51376471877188
 1  5.59957325572557  2.29793418361836 -1.93793814841484
 1  5.62337766056606  0.84449477967797 -2.97436873617362
 1  6.46573959725973  1.63245947364737  0.00487798549855
 1  6.19702305030503  0.09657640874087  0.70474148124813
 1  7.28667240934093 -1.08101917361736 -1.26672080078008
 1  7.93869540054005  0.46900377687769 -1.74103425032503
 1  9.15229132633263  1.07849046554655  0.46290025252525
 1  8.53999182198220 -0.67841619701970  0.78075269386939
 1  10.21754346584659  0.13722848914891 -1.53470730133013
 1  9.02061855825583 -2.16408345264526 -1.79801476267627
 1  10.85518860356036 -2.49460597319732 -1.82663884988499
 1  9.80758823242324 -2.90099172177218 -0.36577866856686
 1  11.25756051825183  0.62068647614761  0.49502146554656
 1  11.36321673137314 -1.11736407450745  0.91036850985098
 1  12.72674841054105 -1.47538439983998 -1.04093242814281
 1  12.75291419741974  0.23859333833383 -1.55833419721972
 1  13.96201770497050  0.76590984648465  0.86830349084908
 1  13.90385647594760 -0.87807024432443  1.05545071477148
 1  15.31881427352735  0.46225608600860 -1.58143780328033
 1  15.98166016701670 -2.20496722262226 -0.02735033263326
 1  14.78882641444144 -2.15181337493749 -1.50870859125913
 1  16.72290034863487 -1.70396432503250 -1.43846595539554
 1  16.19910512021202  1.54163323602360  0.65258867986799
 1  16.65805750775078 -0.06936333203320  1.23005593729373
 1  18.26831602350235 -0.54426138993899 -0.57944395199520
 1  17.79686976817682  1.14150540904090 -1.26586006990699
 1  18.45639432223222  2.28551045064506  0.60580568146815
 1  18.57809408680868  0.80217382868287  1.60057640924092
 1  20.61981204790479  0.26958339413941 -0.20049229882988
 1  20.12726956025603  3.28446743164316 -0.82465273477348
 1  21.60567668156816  2.24392026992699 -1.33781503550355
 1  19.75836666986698  1.78867026932693 -1.92432285558556
 1  20.72847286258626  1.16693599739974  2.26438588018802
 1  22.17217185768577  1.72448097929793  1.03099736593659
 1  20.77699023162316  2.78700237643764  1.72113804500450

