%nproc=4
%Mem=2GB
# td=(NStates=1) CAM-B3LYP/6-31G(d,p) 

TD

0 1
12 -7.05735740504050  0.67684592529253  0.12986103470347
 6 -4.84829371047105 -1.92418452975298  0.56165180008001
 6 -4.78835814211421  2.88657298459846  1.21018447564756
 6 -9.40933552235223  3.09239163856386 -0.30214154715472
 6 -9.47426845444545 -1.66477665266527 -0.91254936993699
 7 -5.06478926052605  0.50271153165317  0.71109863026303
 6 -4.36738434373437 -0.67846846724672  0.77951985478548
 6 -2.89831079227923 -0.33537880998100  1.20186562776278
 6 -3.05271556075608  1.11015214771477  1.66006881328133
 6 -4.37911599829983  1.52514289468947  1.20861712291229
 6 -2.87884567556756  1.20191667896790  3.15600912701270
 6 -1.87657193809381 -0.55773978407841  0.14216354215422
 6 -0.40757901190119 -0.44909314071407  0.58523710661066
 6  0.47839721812181 -0.68311174327433 -0.54614626642664
 8  0.20125067476748 -1.15095649944995 -1.66072535283528
 8  1.76198322332233 -0.50999590639064 -0.19061328142814
 7 -7.13202081058106  2.65310671797180  0.41936709350935
 6 -6.10928805980598  3.31006196009601  0.88598658265827
 6 -6.49676766646665  4.76776740714071  0.86479424392439
 6 -7.75224581998200  4.76452633933393  0.41273818081808
 6 -8.13358391159116  3.37117740904090  0.17181752095210
 6 -5.47641342254225  5.82849394069407  1.33771029622962
 6 -8.58294750715072  5.91526659465947  0.17756777867787
 6 -8.32169136693669  7.18209429372937 -0.03945820812081
 7 -9.17797283298330  0.63306978527853 -0.45507721302130
 6 -9.95256691569157  1.76739742234223 -0.59465458965897
 6 -11.19087383028303  1.49092008240824 -1.06044079367937
 6 -11.20535905660566  0.12544642194219 -1.36295556175618
 6 -9.88718860256026 -0.38600708880888 -0.91726102900290
 6 -12.35772401450145  2.37085936683668 -1.41176170707071
 6 -12.44463450915092 -0.64840590279028 -1.75064024122412
 6 -12.31424775677568 -1.11409529472947 -3.28737684308431
 7 -7.13457971007101 -1.32667202880288 -0.08353147184718
 6 -8.16315153745375 -2.13894983448345 -0.42746055195520
 6 -7.83603127062706 -3.60716489938994 -0.48585701470147
 6 -6.46500202220222 -3.57816213171317 -0.07302979507951
 6 -6.20516529472947 -2.23610976547655  0.14484610601060
 6 -8.71185152985299 -4.83237605650565 -0.89481902890289
 6 -5.26606314401440 -4.39031501680168  0.36944544444444
 8 -5.07610897269727 -5.56266892049205  0.25968200300030
 6 -4.11961537153715 -3.19937287138714  0.53119401140114
 6 -3.39294365856586 -3.60790687528753  1.84651583128313
 8 -3.74955861046105 -3.24755798859886  2.92974668996900
 8 -2.60069141704170 -4.59127728022802  1.56339442744274
 6 -2.01043368186819 -5.19649011831183  2.69043038003800
 6  2.78400217681768 -0.66278553625363 -1.23851922682268
 6  4.14724804720472 -0.53122697209721 -0.49929245794579
 6  5.05161876927693  0.29893321782178 -0.95707560776078
 6  4.91107852445244  1.35188972527253 -2.16352344344434
 6  6.36584304190419  0.40849965686569 -0.19092577877788
 6  7.55551329022902 -0.28642052395240 -0.93959362806281
 6  8.83885296769677 -0.03522325582558 -0.16248884308431
 6  10.08375926892689 -0.50297739603960 -0.94842123652365
 6  10.13224041024102 -2.03900323522352 -1.33238489999000
 6  11.47107822492249 -0.23608449904990 -0.10878067936794
 6  12.73500066906691 -0.40854737063706 -0.86771731153115
 6  13.89114480228023  0.04088732553255  0.06313352635264
 6  15.33138848284828 -0.22016462816282 -0.56377942824282
 6  15.58476257845785 -1.67042982878288 -0.97719499929993
 6  16.36765001900190  0.38975336143614  0.40088927362736
 6  17.79066477077708  0.54023214901490 -0.21475975587559
 6  18.75217061656166  1.17186903370337  0.81604396609661
 6  20.16772445224522  1.24965070967097  0.33342294589459
 6  20.39609983888389  2.21592724072407 -0.88232405380538
 6  21.20240811491149  1.80573494289429  1.36303300490049
 1 -3.98871913041304  3.49574795649565  1.50009453045304
 1 -10.05308906060606  3.85076266016602 -0.49954425702570
 1 -10.02847210901090 -2.44321437613761 -1.14653820132013
 1 -2.65831452215222 -0.97253691739174  2.12305954455446
 1 -2.26732637063706  1.80140862946295  0.98986335283528
 1 -1.97517124042404  0.80461595059506  3.55071528492849
 1 -2.94705949214922  2.13624308090809  3.42793736123612
 1 -3.80982196339634  0.59624399209921  3.63050693519352
 1 -1.83716624352435 -1.63568948934893 -0.25774076007601
 1 -2.16010021222122  0.10447253855386 -0.75444054565456
 1 -0.15941303530353  0.58371629512951  1.16679893179318
 1 -0.09630558425843 -1.45871884728473  1.24382725862586
 1 -4.99907207490749  6.22446762186219  0.40325210741074
 1 -6.11005567586759  6.57498729752975  1.71325601480148
 1 -4.77376060486049  5.76863203460346  2.17614129282928
 1 -9.58933643254325  5.56586952305231  0.23919176367637
 1 -9.12749338973897  7.85838442794279 -0.02946235293529
 1 -7.23870890749075  7.46610717991799 -0.12028649924992
 1 -12.23663907670767  2.83864116941694 -2.41247754615462
 1 -13.25164037753775  1.60891652975297 -1.55482900660066
 1 -12.44399136053605  3.16784987038704 -0.66176767476748
 1 -12.33141566966697 -1.64355675387539 -1.21916212411241
 1 -13.17323332693269 -0.03391720472047 -1.48788614561456
 1 -13.26545701190119 -1.95628686788679 -3.53358635633563
 1 -12.72801297529753 -0.10466919281928 -3.85071264626463
 1 -11.33143649124912 -1.44283722772277 -3.53037215271527
 1 -8.61818271417142 -5.05311816011601 -1.99228681008101
 1 -8.17728142914291 -5.76604671287129 -0.23620784888489
 1 -9.79384154995500 -4.91321810881088 -0.31425968216822
 1 -3.42220235223522 -3.34850643514351 -0.26901355435544
 1 -1.46737782778278 -4.43737211451145  3.43616030303030
 1 -2.96221140854085 -5.66871751415141  3.24468169026903
 1 -1.36151757825783 -6.01843602070207  2.40995769866987
 1  2.85572024312431 -1.58720841074107 -1.68807288358836
 1  2.39492119231923 -0.10927800940094 -2.09075109490949
 1  4.02492171647165 -1.09294730093009  0.41514389058906
 1  4.00716165246525  1.31666276257626 -2.73350669296930
 1  5.15364866326633  2.21199558975898 -1.70421477607761
 1  5.70639596239624  0.96195652585259 -2.87329862916292
 1  6.50900392369237  1.44844107180718 -0.02986548884888
 1  6.16334968296830 -0.18184143304330  0.82634364146415
 1  7.53028677077708 -1.20459153085309 -0.93038716741674
 1  7.61377290829083  0.09745662216222 -1.96270641754175
 1  8.91199729692969  1.04527714421442  0.05465942844284
 1  8.84564238703870 -0.72125048044804  0.73627824642464
 1  10.23570528202820  0.04387915421542 -1.84452828342834
 1  9.18023451985199 -2.40387743204320 -1.88364332553255
 1  10.93768685338534 -2.28759527212721 -2.10091627762776
 1  9.97377485108511 -2.54231585418542 -0.28854094479448
 1  11.59286404860486  0.80982539003900  0.36044800820082
 1  11.21261167086709 -1.05253759185919  0.71291876487649
 1  12.94359009470947 -1.34795165656566 -1.13428176307631
 1  12.71871077707771  0.21672115111511 -1.75392375617562
 1  13.90037154035404  1.12879613511351  0.37367402790279
 1  13.82014810511051 -0.32701513881388  1.08429359905991
 1  15.36308870097010  0.35875573597360 -1.48564822432243
 1  15.66829883088309 -2.16811353725372  0.05096749914992
 1  14.72192972477248 -2.06377457105711 -1.53302102250225
 1  16.46545460406041 -1.77825175377538 -1.45768787758776
 1  15.90627583728373  1.30093916661666  0.51065448644864
 1  16.33936563856386 -0.04094048974897  1.37322025372537
 1  18.19961915381538 -0.36881384518452 -0.54198020562056
 1  17.53994407560756  1.11229248774877 -1.01310479437944
 1  18.46117480028003  2.12974487408741  1.00187528842884
 1  18.82345862326233  0.73296690799080  1.89202555415542
 1  20.58563863056305  0.27184362016202  0.13841159155916
 1  20.23297013031303  3.34989397429743 -0.49675994549455
 1  21.29935604950495  2.05017089498950 -1.28617987198720
 1  19.46833766696670  2.07410881318132 -1.66877730103010
 1  21.39353936923692  0.94381368516852  2.07888733033303
 1  22.27323196369637  1.96917544874487  1.09710397659766
 1  20.88695122772277  2.81810548674867  1.87244317551755

