%nproc=4
%Mem=2GB
# td=(NStates=1) CAM-B3LYP/6-31G(d,p) 

TD

0 1
12 -7.16383805310531  0.58033627432743  0.30171822042204
 6 -4.84397327842784 -1.91773388468847  0.68021365626563
 6 -4.76010531683168  2.88182250955096  1.22484594179418
 6 -9.40734532333233  3.02507490689069 -0.32866419941994
 6 -9.58598962656266 -1.78904907990799 -0.85365348034803
 7 -5.15375815741574  0.44158541904190  0.82933045344534
 6 -4.38700630593059 -0.62043266366637  0.88204010681068
 6 -3.03414437563756 -0.44935020712071  1.32329777097710
 6 -2.95909619881988  1.09558069056906  1.72929573597360
 6 -4.37584567126713  1.44089446984698  1.29019528072807
 6 -2.80062785378538  1.36247273457346  3.17095062116212
 6 -2.05948022892289 -0.57757176727673  0.15325465126513
 6 -0.58234648864887 -0.49226745814581  0.56929551245125
 6  0.46757613601360 -0.70168360046005 -0.57063871567157
 8  0.15158570827083 -0.91971337513751 -1.70968024832483
 8  1.62628965396540 -0.35224013081308 -0.21546576667667
 7 -7.09586719521952  2.64580598789879  0.40907606440644
 6 -6.08367549854986  3.36239719361936  0.82982096609661
 6 -6.43033102280228  4.74590522092209  0.80576834133413
 6 -7.77767836323632  4.86924681138114  0.39448635563556
 6 -8.16757731093109  3.51298158945895  0.14123446264626
 6 -5.61348712991299  5.90787187848785  1.33548007320732
 6 -8.65768498089809  6.00945601360136  0.16836685858586
 6 -8.25796499429943  7.27971405570557 -0.05946020832083
 7 -9.18597363306331  0.56859333763376 -0.45842754805481
 6 -9.90448210721072  1.73898458105811 -0.58228335253525
 6 -11.25351009390939  1.38145913631363 -1.05674042364236
 6 -11.30582910361036  0.04625850315032 -1.22223148934893
 6 -9.99242912661266 -0.44283277137714 -0.77700700360036
 6 -12.33907214931493  2.33471575247525 -1.48216874777478
 6 -12.31168121382138 -0.95418648084808 -1.86425160236024
 6 -12.16161249324933 -1.20736462166217 -3.32848095349535
 7 -7.19587583968397 -1.42989235083508 -0.13111623032303
 6 -8.28931415371537 -2.28574451395140 -0.48560636653665
 6 -7.74756242374237 -3.61026520942094 -0.45318374737474
 6 -6.47561308330833 -3.49772408790879 -0.17768026012601
 6 -6.15939071727173 -2.15317147164716  0.10033165456546
 6 -8.53067341204120 -4.88485130403040 -0.91934148114811
 6 -5.27967450515052 -4.33048903420342  0.11928042794279
 8 -5.12289365116512 -5.50450310391039  0.05920195499550
 6 -4.18961237123712 -3.23577651175117  0.63083397539754
 6 -3.60328469266927 -3.69679576417642  1.81768294799480
 8 -3.83162681728173 -3.15564879767977  2.97739145444544
 8 -2.71994334223422 -4.70085823832383  1.67880596859686
 6 -2.08686132463246 -5.14028449774978  2.91338267526753
 6  2.78816259285929 -0.41828108580858 -1.23108848374837
 6  4.02127544994500 -0.31597544694469 -0.45818834753475
 6  5.09732333973397  0.34130745524552 -0.97061696189619
 6  5.13897131373137  1.34845938223822 -2.16872396349635
 6  6.41189764736474  0.41487029392939 -0.21331801800180
 6  7.72435017391739 -0.00430231213121 -1.06605627432743
 6  8.88402748514851 -0.17168690219022 -0.22157475167517
 6  10.27582847584758 -0.51402850115012 -0.93508990339034
 6  10.22173936013601 -1.96284561946195 -1.54184584608461
 6  11.51023214031403 -0.27962885348535 -0.02900270157016
 6  12.80748791779178 -0.39011552745275 -0.76203674347435
 6  13.99336502430243 -0.07164392759276  0.16582379537954
 6  15.33815915991599 -0.29651226292629 -0.48678172847285
 6  15.64440854305431 -1.69682246804680 -0.99767704750475
 6  16.47855110911091  0.38873325942594  0.46587577227723
 6  17.79612531683168  0.54798292409241 -0.19289756965697
 6  18.79149454895490  1.11937378417842  0.71551391309131
 6  20.25980366016602  1.25819156375638  0.22043164676468
 6  20.44145437433743  2.15557120512051 -0.96945276667667
 6  21.18228610271027  1.68603297269727  1.40698740034003
 1 -4.02537279577958  3.62954133583358  1.60113463446345
 1 -10.00232398409841  3.80897848174817 -0.33318762136214
 1 -10.20789005080508 -2.46976703140314 -1.13296684418442
 1 -2.47656634733473 -0.93259292299230  2.35070230883088
 1 -2.32311194919492  1.75086357495750  1.20079444594459
 1 -1.61549527282728  1.05833132213221  3.50921113451345
 1 -2.77458224442444  2.38758821542154  3.54768933643364
 1 -3.53140412161216  0.89374374207421  3.83940782528253
 1 -2.24119664656466 -1.52320824122412 -0.38568355435544
 1 -2.18481268346835  0.10979307060706 -0.67603270487049
 1 -0.31261835583558  0.43821174467447  0.93651590349035
 1 -0.45546149984999 -1.18950192559256  1.20930380628063
 1 -5.20523269096910  6.45592076717672  0.40367214941494
 1 -6.54969964026403  6.59853965276528  1.62351704090409
 1 -4.89863309210921  5.47585275667567  2.14637831653165
 1 -9.65548304720472  5.75752868896890  0.23965180968097
 1 -8.99601024142414  8.05915450495050 -0.24020342704270
 1 -7.22009704630463  7.39325989518952 -0.38091256185619
 1 -12.01259667246725  2.90691799709971 -2.36711300970097
 1 -13.29343455695570  1.70541617971797 -1.55616914061406
 1 -12.60244720612061  3.24090717611761 -0.80225172317232
 1 -12.11076360446044 -1.96478887708771 -1.38401860976098
 1 -13.27229323292329 -0.35473928692869 -1.62350970797080
 1 -13.00033049924992 -1.90257149634963 -3.69484248194819
 1 -12.49523969796980 -0.24127285318532 -3.89633720872087
 1 -11.12512586018602 -1.52480542454245 -3.67638675417542
 1 -8.97957885378538 -4.47020986928693 -1.96205378677868
 1 -7.96427012801280 -5.79040914911491 -0.87561178927893
 1 -9.44868703450345 -5.11210799779978 -0.07065532173217
 1 -3.40399053105311 -3.42626421092109 -0.12822947594759
 1 -1.62554364436444 -4.25819419671967  3.30752743974397
 1 -2.90214540194019 -5.48410905330533  3.69386660876088
 1 -1.55942736923692 -5.97763194029403  2.57081378427843
 1  2.70030470157016 -1.42704239413941 -1.53483756005601
 1  2.66248794899490  0.32727564596460 -2.00179219901990
 1  4.17716694099410 -0.75321332753275  0.50867324352435
 1  4.09249018531853  1.57895899219922 -2.57154049634964
 1  5.37408070647065  2.34925931613161 -1.67074142874287
 1  5.74005932873287  1.23884421462146 -2.96870817011701
 1  6.36012903620362  1.40580680838084 -0.05405790809081
 1  6.28279162716272 -0.25191844074407  0.70485149224922
 1  7.48042178427843 -1.09499057075708 -1.42516664536454
 1  8.04108563956396  0.60576745324532 -1.92901304820482
 1  8.97055315251525  0.77164978147815  0.17736169866987
 1  8.73737155995600 -0.93303165856586  0.63298791739174
 1  10.46573828532853  0.29156392269227 -1.74295812641264
 1  9.36656315271527 -2.34276132043204 -2.04303926512651
 1  11.13753683838384 -2.12798931153115 -2.24343052905291
 1  10.29119659325933 -2.68192981558156 -0.65957804850485
 1  11.53617838003800  0.66327073457346  0.28265022842284
 1  11.65770618031803 -0.97439977807781  0.68612608560856
 1  12.96917265296530 -1.44056091749175 -1.10610894579458
 1  13.04798370437044  0.12566204520452 -1.76964532833283
 1  13.88689019221922  0.92934619011901  0.52824948544854
 1  13.90143623392339 -0.55929836713671  1.08449361906191
 1  15.38404079617962  0.32204206460646 -1.31069072857286
 1  15.65911791279128 -2.37545427132713 -0.25272286988699
 1  14.83920145194520 -2.00347854145414 -1.46295401580158
 1  16.71799985858586 -1.77804173277328 -1.57770987978798
 1  16.13184839453945  1.26274534723472  0.94066748774877
 1  16.49594129612962 -0.25190158585859  1.34011694339434
 1  18.05059425132513 -0.38841580538054 -0.54687069466947
 1  17.72793287448745  1.11778303680368 -1.12784626852685
 1  18.49223790659066  2.12119401900190  1.16035113601360
 1  19.06394267166716  0.51759537083708  1.63011936353635
 1  20.61903196989699  0.31590802660266 -0.20666291589159
 1  20.37628446174617  3.17444642954295 -0.38183845334533
 1  21.48161427532753  1.97863374127413 -1.38045929992999
 1  19.49156999019902  1.82091349364937 -1.75546596989699
 1  21.17498751405141  1.04843414721472  2.26691613321332
 1  22.25930057055706  1.62799133033303  1.29687395359536
 1  20.86269880248025  2.69708338453845  1.64506043724372

