%nproc=4
%Mem=2GB
# td=(NStates=1) CAM-B3LYP/6-31G(d,p) 

TD

0 1
12 -7.21906357565757  0.58455669636964  0.16118416701670
 6 -4.78448732983298 -1.85704781608161  0.47135277017702
 6 -4.77442674897490  2.81993632093209  1.25366882408241
 6 -9.50133472227223  3.07258965836584 -0.21935326832683
 6 -9.55857688528853 -1.73962413741374 -0.79299741474147
 7 -5.07671045264526  0.44489575007501  0.69114663506351
 6 -4.30596820212021 -0.66230685108511  0.86322822562256
 6 -2.81708266946695 -0.30380565266527  1.19769521072107
 6 -3.07808809800980  1.05556668916892  1.72297510391039
 6 -4.42497058375838  1.49093947434743  1.21513777497750
 6 -2.96583437443744  1.28456494379438  3.29401292739274
 6 -1.95454973587359 -0.45323933403340  0.05203452925293
 6 -0.43957221122112 -0.35006323772377  0.50828941184118
 6  0.44044342274227 -0.60288372047205 -0.62221387318732
 8  0.26228677837784 -0.93313471727173 -1.78633791409141
 8  1.74734175917592 -0.47140204700470 -0.19211343144314
 7 -7.06308391689169  2.59536094339434  0.36451160796080
 6 -6.08292542354235  3.35152610651065  0.83343132713271
 6 -6.46203419311931  4.73915454585458  0.87605537003700
 6 -7.78444904030403  4.82855274197420  0.37964487148715
 6 -8.25520607380738  3.37571786308631  0.15362570177018
 6 -5.58547432863286  5.86092718401840  1.45926245144514
 6 -8.62305151755176  6.05091015901590  0.09657967986799
 6 -8.30117931573157  7.27847393169317  0.01758749644964
 7 -9.15594062976298  0.63039951825183 -0.48290999629963
 6 -9.94025568456846  1.79530021262126 -0.57571269546955
 6 -11.16879162206221  1.34582557295730 -1.08267301690169
 6 -11.29417793849385  0.00853473077308 -1.15422468866887
 6 -9.98741862556256 -0.41097958605861 -0.83519282218222
 6 -12.37077531963196  2.43482576347635 -1.42155268616862
 6 -12.32645269096910 -0.80871193339334 -1.67055223242324
 6 -12.23071940394039 -0.95853973917392 -3.24003210861086
 7 -7.22372862496250 -1.36034539613961 -0.11745486418642
 6 -8.25620084238424 -2.24980091959196 -0.49179698559856
 6 -7.76728439593959 -3.63553773667367 -0.44049247824782
 6 -6.39320484248425 -3.60548486398640 -0.13293578567857
 6 -6.07508228642864 -2.18932508700870  0.14434605600560
 6 -8.59230957565756 -4.71855467436744 -0.73465301230123
 6 -5.17413395109511 -4.39398538383838  0.18198669856986
 8 -5.02509387118712 -5.56549920352035  0.14507054185419
 6 -4.11254466446645 -3.25440837493749  0.51404229622962
 6 -3.49085344954495 -3.67176326092609  1.85984716441644
 8 -3.70873452805281 -3.19001223402340  2.91905562086209
 8 -2.71847319521952 -4.76494464696470  1.63501158915892
 6 -2.20537317581758 -5.21097156645665  2.78351968896890
 6  2.73272704930493 -0.70184944264426 -1.20877625252525
 6  4.19175249764977 -0.49097294669467 -0.63189571827183
 6  5.13113672107211  0.25201852635264 -1.14723462366237
 6  5.01410882748275  1.07274181048105 -2.43213030413041
 6  6.53624008160816  0.30172897979798 -0.43656034223422
 6  7.72224996389639 -0.20623250515052 -1.10282995169517
 6  8.91621070347035 -0.08729846334633 -0.24779737393739
 6  10.17561845484548 -0.51938903720372 -0.92845924032403
 6  10.17562474867487 -1.94753408830883 -1.31701336283628
 6  11.47790890799080 -0.36178706930693 -0.02065186648665
 6  12.76182335133513 -0.41438795469547 -0.76966750655066
 6  13.91623731153115 -0.17690445364536  0.14707192019202
 6  15.35682102610261 -0.16411902360236 -0.47921097139714
 6  15.62850695289529 -1.59461224702470 -0.94493177297730
 6  16.38720197419742  0.49884427052705  0.51384056875688
 6  17.76002170647065  0.52196032183218  0.01576329642964
 6  18.76193159265927  1.32541438823882  0.85010737243724
 6  20.24930261006101  1.33413915851585  0.29268887248725
 6  20.33900412931293  2.03577922592259 -1.02657847924792
 6  21.04716259035904  1.86761113051305  1.47362406400640
 1 -3.97620787928793  3.55416379807981  1.64965948694869
 1 -10.15115886758676  3.84710229412941 -0.35693999659966
 1 -10.33739300110011 -2.29342939763976 -1.06567011451145
 1 -2.62247093779378 -0.95616528022802  2.16893413201320
 1 -2.27559719771977  1.79833832243224  1.33143751025102
 1 -2.01326504980498  1.24427991699170  3.82132234563456
 1 -3.30010479667967  2.29040849744975  3.29486405390539
 1 -3.79817079827983  0.65482985068507  3.77954183868387
 1 -2.21116364326433 -1.47756367676768 -0.46561154715472
 1 -2.08629283148315  0.27307939923992 -0.66490159175918
 1 -0.19936703070307  0.57930585408541  0.90545279717972
 1 -0.31195714941494 -0.92725570097010  1.35870874677468
 1 -4.94343651135113  6.29891506660666  0.82252403460346
 1 -6.33387805810581  6.70553035183518  1.75081977117712
 1 -5.06415964476448  5.64426959835984  2.40533421212121
 1 -9.70733823272327  5.66614955105511 -0.02960511601160
 1 -9.02267290769077  7.97295588508851 -0.13074248094809
 1 -7.32543758035804  7.63207377657766  0.13275880528053
 1 -11.92686809960996  3.14735204050405 -2.19521581998200
 1 -13.30179539303930  2.07592323042304 -1.99918344204420
 1 -12.77937489888989  3.02283536893689 -0.56538803680368
 1 -12.36568909700970 -1.78613101130113 -1.30765097299730
 1 -13.30680668426843 -0.28588240124013 -1.36779413641364
 1 -13.19501996819682 -1.38966020522052 -3.67057005470547
 1 -12.19514968896890  0.10391166526653 -3.68747632263226
 1 -11.38009135673567 -1.52705564956496 -3.43821293679368
 1 -9.11494239013902 -4.65620846914691 -1.72679026042604
 1 -8.07399110011001 -5.73320342854285 -0.58119234733473
 1 -9.37971013681368 -4.67162394939494  0.06941868566857
 1 -3.42719285128513 -3.18790037453745 -0.22193884688469
 1 -1.58282937293729 -4.27950632793279  3.22698938593859
 1 -2.83873906130613 -5.32540318271827  3.90080730283028
 1 -1.56012743924392 -6.27000117721772  2.73290999389939
 1  2.49378404950495 -1.68915860576058 -1.78052212851285
 1  2.54160586078608 -0.09274635623562 -2.02252427222722
 1  4.34591381568157 -0.94480248644864  0.29852222842284
 1  4.00568150445045  1.37658875517552 -2.75110845314531
 1  5.68887218561856  2.02245663586359 -2.24262861746175
 1  5.75677099989999  0.39408973917392 -3.09750104940494
 1  6.68339136243624  1.41821804950495 -0.31510401270127
 1  6.45252860086009 -0.20225347424742  0.55588659575958
 1  7.47534127622762 -1.28507957965797 -1.37745187388739
 1  7.87499903090309  0.27213408990899 -2.18598874577458
 1  9.03184928212821  0.83901651815182  0.31262522502250
 1  8.71380920372037 -0.75499385478548  0.51688630723072
 1  10.34565627712771 -0.02184741844184 -1.86725055565557
 1  9.31627812421242 -2.16062310661066 -1.93203816501650
 1  10.93172625732573 -2.19079559215922 -1.88520470647065
 1  9.94654212781278 -2.72100372297230 -0.60721281198120
 1  11.42953771597160  0.72826723422342  0.21089305270527
 1  11.33621403110311 -0.95096743484348  0.95667314031403
 1  12.74732046774677 -1.60917777917792 -1.05002333723372
 1  12.82389129512951  0.09902938193819 -1.59225758955896
 1  13.73286478967897  0.70065332083208  0.71706836733673
 1  13.77914400470047 -0.93362579987999  1.00810598029803
 1  15.23253564566457  0.50168002840284 -1.30179983948395
 1  15.49857185818582 -2.02499922582258  0.10226262866287
 1  14.68149568136814 -1.79637783138314 -1.61374909530953
 1  16.63135119371938 -1.71089501810181 -1.16654876367637
 1  16.06260146984699  1.46778585128513  0.65747916891689
 1  16.40060176217622 -0.08845524122412  1.52159509120912
 1  17.97440663256326 -0.43347031083108 -0.34209021662166
 1  17.56675675687569  0.88285954445445 -0.96977046094610
 1  18.32995167796780  2.39622152175218  0.87550265116512
 1  18.83702998039804  0.99905351665167  1.73348970057006
 1  20.77356742344234  0.38266470227023  0.19265701610161
 1  19.85197203050305  3.12930191509151 -1.00975124462446
 1  21.41721783568357  2.32418829672967 -1.33768502250225
 1  19.88705953915391  1.54298570087009 -1.95734615791579
 1  21.18971898719872  1.10525982978298  2.43710315191519
 1  22.21778641914191  1.86821535273527  1.24356862306231
 1  20.77511004360436  2.80249392559256  1.90710664186419

