%nproc=4
%Mem=2GB
# td=(NStates=1) CAM-B3LYP/6-31G(d,p) 

TD

0 1
12 -7.19226089538954  0.62035027572757  0.15709375797580
 6 -4.80457933903390 -1.94061617291729  0.40461609650965
 6 -4.85078438473847  2.88344267156716  1.18827228442844
 6 -9.42070665946595  3.06433883328333 -0.26138747174717
 6 -9.50501152875288 -1.80915109010901 -0.86204431943194
 7 -5.13710649224922  0.49383064356436  0.72948046844684
 6 -4.34521212651265 -0.62765338573857  0.77429933273327
 6 -2.91263222442244 -0.32130740284028  1.32689813101310
 6 -3.01078136733673  1.23082421492149  1.69125193159316
 6 -4.40080816751675  1.56671705210521  1.14759102030203
 6 -3.02470026102610  1.29105559285929  3.23494702080208
 6 -1.83027730863086 -0.54086809690969  0.11286061186119
 6 -0.43053130713071 -0.36312454385439  0.57995657855786
 6  0.48861824022402 -0.56594002610261 -0.50323197499750
 8  0.24072462216222 -0.96604800860086 -1.62171145144514
 8  1.78121514651465 -0.41111601840184 -0.15285950605061
 7 -7.10810841934193  2.65762717001700  0.41718687548755
 6 -6.08991612261226  3.38821977587759  0.83328131213121
 6 -6.51313930363036  4.78714934533453  0.94220198469847
 6 -7.87306790219022  4.84499438613861  0.52482938993899
 6 -8.26093664686469  3.46080637193719  0.17542788198820
 6 -5.71032681388139  5.86201729302930  1.61861838703870
 6 -8.66726593899390  5.99723479147915  0.42601262316232
 6 -8.35534473227323  7.29628571287129  0.12698843654365
 7 -9.18104314001400  0.59154563286329 -0.41872357765777
 6 -9.89190084908491  1.77903858645865 -0.64959008320832
 6 -11.23676841974197  1.44941593199320 -1.19712446204620
 6 -11.25445396609661  0.09736361366137 -1.23908317451745
 6 -9.92196207990799 -0.38027651575157 -0.82530183308331
 6 -12.30511875397540  2.49698197909791 -1.63185371627163
 6 -12.31123116881688 -0.78504956715672 -1.88005318251825
 6 -12.06869320132013 -1.11999588478848 -3.29941804720472
 7 -7.15889214131413 -1.36987634923492 -0.30624374307431
 6 -8.21354657695770 -2.20698663816382 -0.59425723162316
 6 -7.77093476097610 -3.57150133303330 -0.63251168016802
 6 -6.49675519751975 -3.46271058655866 -0.22015450755075
 6 -6.14702948114811 -2.06378253275328  0.04692631403140
 6 -8.53870421512151 -4.87473029192919 -0.73366291329133
 6 -5.28658519621962 -4.35119110441044  0.13380188008801
 8 -5.20197155895590 -5.55588824242424  0.18471450625063
 6 -4.12219562956296 -3.29534246834683  0.45859675167517
 6 -3.52829719391939 -3.68693477807781  1.88213939363936
 8 -3.88956261086109 -3.18832206500650  2.98022173747375
 8 -2.64313566146615 -4.68569672217222  1.71287937593759
 6 -2.09666230473047 -5.08414888418842  2.92520385738574
 6  2.80149392599260 -0.69311856955696 -1.14739011391139
 6  4.05259858225823 -0.56273012241224 -0.67664019271927
 6  5.11645525292529  0.22878620312031 -1.03113301350135
 6  5.11149856645665  0.96080061636164 -2.33437052815282
 6  6.40833729132913  0.32334114101410 -0.21327801400140
 6  7.62555029392939 -0.32591447334733 -0.89194886358636
 6  8.92015109750975 -0.26912664616462 -0.17092968716872
 6  10.16520741374137 -0.77944504280428 -0.94424081848185
 6  10.22958014421442 -2.18151748664866 -1.31052271377138
 6  11.42303342044204 -0.40027091769177 -0.04680448174818
 6  12.83909107810781 -0.48870538643864 -0.60246078587859
 6  13.93767945574558 -0.24338110131013  0.43454066706671
 6  15.35855119911991 -0.30164277597760 -0.37106015631563
 6  15.67633173537354 -1.57577036283628 -0.92721000080008
 6  16.41694494849485  0.38564295039504  0.49480866556656
 6  17.81340704500450  0.53379150495050 -0.14138241814181
 6  18.78484388388839  1.36045789258926  0.71970433213321
 6  20.18820650045005  1.48470421502150  0.08596820042004
 6  20.30317054595459  2.45701134913491 -1.18815463686369
 6  21.26028390249025  1.91434580398040  1.08270497209721
 1 -4.02530278877888  3.57237561926193  1.55162968396840
 1 -10.38667241894189  3.85669325322532 -0.52708701130113
 1 -9.99463872567257 -2.65213526822682 -1.34026757425743
 1 -2.56485517621762 -0.95542520622062  2.10222746134613
 1 -2.23569320732073  1.63522201080108  1.04070843734373
 1 -2.29226294959496  1.01757724672467  3.57914812821282
 1 -3.23437822402240  2.39296875347535  3.45444001150115
 1 -3.79801078227823  0.58137250495049  3.57583146764676
 1 -2.05603813071307 -1.57243316371637 -0.43187817381738
 1 -2.12269647184718  0.24500659195920 -0.78052315391539
 1 -0.18718581258126  0.67056497999800  0.83709596149615
 1 -0.27564351805181 -0.97616059145915  1.53030590649065
 1 -4.77159932763276  6.06445162026203  0.70846262846285
 1 -6.36961163146315  6.66893669246925  1.82189687888789
 1 -5.24025725452545  5.68205337673767  2.58835251395139
 1 -9.66222372127213  5.83311624772477  0.84134197869787
 1 -9.15667630803080  8.13248183768377  0.22799339263926
 1 -7.28896393299330  7.58340891009101 -0.01537600820082
 1 -11.96474188698870  2.87550485578558 -2.53390968936894
 1 -13.31522673617362  2.06394203230323 -1.83300682438244
 1 -12.45936289768977  3.30130321572157 -0.86864836283628
 1 -12.28139066716672 -1.70124252245225 -1.37836804470447
 1 -13.17789379297930 -0.35003881688169 -1.61564892189219
 1 -12.77467793399340 -1.85891713091309 -3.64652765046505
 1 -11.88935910991099 -0.27210593649365 -4.20100767576758
 1 -11.13109645724573 -1.71940488448845 -3.34931404690469
 1 -8.94730562646265 -4.95483833213321 -1.80061764316432
 1 -7.96491019201920 -5.81171127932793 -0.71878610671067
 1 -9.29581174697470 -4.79955674267427 -0.13108136433643
 1 -3.31916204820482 -3.50481206570657 -0.24082073507351
 1 -1.54246533653365 -4.46762513981398  3.48752543954395
 1 -2.72596778417842 -5.51224186658666  3.72716993909391
 1 -1.54051547804780 -5.92512668976898  2.66046274917492
 1  2.59075374647465 -1.73200289018902 -1.24926900320032
 1  2.53235493569357 -0.07063414501450 -2.11621364116412
 1  4.22779200350035 -0.88299630583058  0.42232460866087
 1  3.94313524982498  1.08718981528153 -2.64989833213321
 1  5.47527082548255  1.98546293649365 -1.90999535413541
 1  5.83737906070607  0.68209854005401 -3.03437473677368
 1  6.79085210851085  1.25915214291429 -0.02447494979498
 1  6.28841218921892 -0.10699394829483  0.85046605370537
 1  7.31799554165417 -1.29963103480348 -1.36512064076408
 1  7.65697722872287  0.30753763026303 -1.89465961286129
 1  9.20728682588259  0.77902051855186  0.18063202570257
 1  8.93543136593659 -0.88334669006901  0.75349996859686
 1  10.42597430893089 -0.29568480218022 -2.00176400700070
 1  9.41512800920092 -2.41593863816382 -2.01225618681868
 1  11.21181426612661 -2.51193770637064 -1.86218240424042
 1  10.13496096969697 -2.81048267086709 -0.61268335903590
 1  11.15616037823782  0.84199860736074  0.30318228162816
 1  11.61416182588259 -1.07906024412441  0.91380885388539
 1  12.89872560826083 -1.69236609800980 -0.98108644354435
 1  12.79707861386139  0.00315979497950 -1.47170553435344
 1  13.67935943914392  0.69522277777778  0.67277393789379
 1  13.92770886118612 -1.11497393469347  1.16194136383638
 1  15.26837923002300  0.56328618901890 -1.14561422092209
 1  16.06990899189919 -2.15527225312531 -0.04969256685669
 1  14.67371490329033 -2.17484567816782 -1.44488220862086
 1  16.62434049264927 -1.33659758835884 -1.42777488628863
 1  16.23996920662066  1.47663673637364  0.80951437243724
 1  16.34175587758776 -0.27322371807181  1.33889682138214
 1  18.24603379527953 -0.47034399819982 -0.35486149374937
 1  17.65469555075508  0.97782904140414 -1.08660214411441
 1  18.58004668746874  2.38021992159216  0.66017111801180
 1  18.91918819621962  1.08049166046605  1.71472782438244
 1  20.47634770147015  0.37867430323032 -0.38990123972397
 1  19.91946878017802  3.39052803770377 -1.00866113561356
 1  21.23744985888589  2.62371824972497 -1.48979023302330
 1  19.71538237143714  2.16611801410141 -1.89077950125013
 1  21.19471948724873  1.21226052985298  1.96578602020202
 1  22.24670931143114  2.00840937213721  0.72871713791379
 1  21.07841037363736  3.12502617881788  1.32377830903090

