%nproc=4
%Mem=2GB
# td=(NStates=1) CAM-B3LYP/6-31G(d,p) 

TD

0 1
12 -7.19342101140114  0.56795503620362  0.03666171477148
 6 -4.91706058715872 -1.93202531383138  0.55018065296530
 6 -4.83305261156116  2.79354368166817  1.23603706090609
 6 -9.41907649644964  3.00907330673067 -0.42620395339534
 6 -9.53706473407341 -1.77375755075508 -0.93786190119012
 7 -5.22234501610161  0.39510077057706  0.74157167756776
 6 -4.31016862216222 -0.66871749214921  0.85796769956996
 6 -2.90622158335834 -0.37189246134613  1.25429087028703
 6 -3.11049133833383  1.07828896139614  1.76528933533353
 6 -4.44731281798180  1.52267264766477  1.13997025822582
 6 -3.04287207820782  1.47222370967097  3.19804333043304
 6 -1.84803908480848 -0.52714672477248  0.17465679147915
 6 -0.42231048504850 -0.32664089548955  0.64800338323832
 6  0.46058543694369 -0.58457188928893 -0.44790644244424
 8  0.26847739743974 -0.87631903570357 -1.61082036233623
 8  1.89328635363536 -0.30956586338634 -0.11717593769377
 7 -7.07652526102610  2.65696710401040  0.38168332513251
 6 -6.10602773377338  3.34838579247925  0.80058804280428
 6 -6.54750273997400  4.78030866126613  0.87868563306331
 6 -7.89332992839284  4.80622050875088  0.42678958595860
 6 -8.25463601680168  3.43354364566457  0.13641398059806
 6 -5.65416119731973  5.88087917921792  1.24815134033403
 6 -8.79888910131013  5.99394446244624  0.36804682658266
 6 -8.35459465726573  7.28409449374938  0.25283102080208
 7 -9.16931196689669  0.62780925922592 -0.63246495179518
 6 -9.98419007800780  1.75230591319132 -0.69237436163616
 6 -11.26587133003300  1.32388337873787 -1.13105785538554
 6 -11.31761028172817 -0.00213633633363 -1.23741300750075
 6 -9.93945382908291 -0.45674416251625 -0.97682698559856
 6 -12.30304854695470  2.36200848174817 -1.46202673357336
 6 -12.41492153785379 -0.87110817301730 -1.70738591579158
 6 -12.46431276327633 -1.15712959815982 -3.22822092749275
 7 -7.25102135423542 -1.36381574317432 -0.19384250295029
 6 -8.25649087138714 -2.30305624512451 -0.57911571747175
 6 -7.71349901740174 -3.60687487038704 -0.53923235223522
 6 -6.43738926092609 -3.55721003650365 -0.15991848394840
 6 -6.20136491469147 -2.21311746624662  0.10588220962096
 6 -8.46754709940994 -4.82902572147215 -0.78446799379938
 6 -5.31046758445845 -4.38616460176018  0.04457295719572
 8 -5.11838320012001 -5.55618827242724  0.19458549334934
 6 -4.12462587258726 -3.20314324842484  0.50817170917092
 6 -3.59621398559856 -3.69492557715772  1.77777895759576
 8 -3.74144779937994 -3.11226445924592  2.87589130443044
 8 -2.62997434533453 -4.63870202270227  1.66614470247025
 6 -2.13019565806581 -5.27029749904990  2.81165250225023
 6  2.71411518811881 -0.47728698639864 -1.07537291219122
 6  4.10660398279828 -0.27965181458146 -0.49725225392539
 6  5.17202080948095  0.50490381488149 -0.81665156535654
 6  5.06883430003000  1.35957049334933 -2.01569866096610
 6  6.50140659825983  0.44742354925493 -0.20575726192619
 6  7.69745748464846 -0.24556643854385 -0.97164683338334
 6  8.98533761616162 -0.30677041054105 -0.07688028222822
 6  10.27097799079908 -0.64120121842184 -0.81119751415142
 6  10.08159534573457 -2.11344067896790 -1.34733639513951
 6  11.50521163826383 -0.24445533613361  0.00654085278528
 6  12.81667883688369 -0.37124364026403 -0.75234577437744
 6  14.00790647844785 -0.14595135833583  0.14184139713971
 6  15.35693103710371 -0.22345495719572 -0.48277132743274
 6  15.65849995219522 -1.70037282308231 -0.73271055085509
 6  16.44969822382238  0.53813819991999  0.40422960766077
 6  17.81374707900790  0.60458858465847 -0.28401668156816
 6  18.93647904740474  1.14520636743674  0.73445580728073
 6  20.33330100990099  1.18794453905391  0.16029563316332
 6  20.48412864176418  2.03198884688469 -1.21604742614261
 6  21.34773264736474  1.70596496589659  1.16998369997000
 1 -4.26484674317432  3.52858123982398  1.92260678167817
 1 -10.10450420212021  3.89898748264826 -0.54392869546955
 1 -10.29828909070907 -2.54460451515151 -0.94351789928993
 1 -2.79298798949895 -0.89395905960596  2.21080831943194
 1 -2.15919555755576  1.60133862246225  1.37650201670167
 1 -2.01651537483748  1.00239572857286  3.73656386978698
 1 -3.06678146434643  2.41239069566957  3.41996656415641
 1 -3.81443242444244  0.92461682938294  3.77970185468547
 1 -1.87700022692269 -1.52120804120412 -0.36196118211821
 1 -2.08777297949795  0.01527361866187 -0.47222232383238
 1 -0.43025011901190  0.84808273177318  0.91073332523252
 1 -0.20476643034303 -0.76219919531953  1.55277815371537
 1 -5.23341550925093  6.49039421452145  0.36408819101910
 1 -6.18488315861586  6.62127192599260  1.89992468166817
 1 -4.70713394219422  5.68472364376438  1.78742242094209
 1 -9.78928642754275  5.77715065116512  0.46457430193019
 1 -9.17054769516952  7.90529911941194  0.28220881418142
 1 -7.43387842444244  7.42187275647565 -0.22486695729573
 1 -11.90246565936594  2.69239654495450 -2.47772407080708
 1 -13.37551276477648  1.83171880998100 -1.69107263096310
 1 -12.44273123452345  3.04000708610861 -0.38452995099510
 1 -12.74328685678568 -1.85064746294629 -1.05869607750775
 1 -13.37449345294529 -0.23116692969297 -1.50925828282828
 1 -13.32482294849485 -1.76552779197920 -3.78207120482048
 1 -12.44247442144214 -0.31471019691969 -3.73956153115312
 1 -11.52211555915592 -1.68487143114311 -3.32957207270727
 1 -8.74080497639764 -4.80053290159016 -1.89780736213621
 1 -7.94941864286429 -5.70405051325133 -0.38068229632963
 1 -9.33947611341134 -4.84448123512351 -0.13344160036004
 1 -3.40897102910291 -3.22234381888189 -0.43265991899190
 1 -1.57949903990399 -4.69049742704270  3.60320700770077
 1 -2.90249543694369 -5.79294993739374  3.21623884598460
 1 -1.30146157265727 -5.81062523962396  2.54121082398240
 1  2.57516218731873 -1.40367005690569 -1.61561563786379
 1  2.73390509070907  0.35089800820082 -1.91662368216822
 1  4.33259248354836 -1.21278928512851  0.14145652185219
 1  4.13770470677068  1.47471856815682 -2.62446578887889
 1  5.57396069446945  2.36723111331133 -1.81721607620762
 1  5.65444076687669  1.02763309350935 -2.86929822912291
 1  6.76073909720972  1.46983321102110 -0.00479298159816
 1  6.28286163416342  0.03474022512251  0.85658666576658
 1  7.40875461756176 -1.18613968566857 -1.28038216691669
 1  7.89567109810981  0.10234711121112 -2.00065021192119
 1  8.84859095629563  0.61779439593959  0.56526048854886
 1  8.86038386118612 -1.05746410181018  0.65148976757676
 1  10.22281399289929  0.02236700300030 -1.70121395199520
 1  9.21612810921092 -2.01475852015201 -2.33396835803580
 1  10.95771885658566 -2.50097661026103 -1.91771795779578
 1  9.89280675427543 -2.81401302390239 -0.45437752845285
 1  11.10722548474847  0.64092850035003  0.41062302570257
 1  11.53504391409141 -0.75070740884088  0.83714118711871
 1  12.92522825852585 -1.32098896029603 -1.40361869676968
 1  12.61038994499450  0.44457393639364 -1.67792615641564
 1  13.86705820902090  0.84872812831283  0.58722538303830
 1  13.92234832513251 -0.74108654595460  1.10058522822282
 1  15.48562095419542  0.15465532593259 -1.34961462096210
 1  15.56056805780578 -2.33710043594359  0.19648205060506
 1  14.87921545334533 -2.07523571717172 -1.38133585398540
 1  16.65075313391339 -1.94734866346635 -1.02166427522752
 1  15.94775998569857  1.53054212691269  0.57834125512551
 1  16.32375407740774  0.18191179547955  1.41878481018102
 1  18.28034722662266 -0.29331629542954 -0.52876888448845
 1  17.84752483368337  1.27522878137814 -1.28795227912791
 1  18.62462114491449  1.98072997259726  1.11452655355536
 1  18.88049432683268  0.34859847114711  1.62049840144014
 1  20.50440050675067  0.12548898469847  0.00991874227423
 1  20.17709454275428  3.08479746464646 -1.05681595109511
 1  21.55308142204220  1.79742562046205 -1.56778803280328
 1  19.75833666686669  1.50146154845485 -2.08262868616862
 1  21.26369638493849  1.22877218101810  2.15377481908191
 1  22.38603324382438  1.51354988618862  0.72552681888189
 1  21.18070060266027  2.80281395759576  1.14978090929093

