%nproc=4
%Mem=2GB
# td=(NStates=1) CAM-B3LYP/6-31G(d,p) 

TD

0 1
12 -7.12885455475547  0.57876611731173  0.10628867746775
 6 -4.92579146024602 -2.03440555185519  0.42591822672267
 6 -4.78209751605161  2.89161348864886  1.09323278047805
 6 -9.41501609040904  3.05302770217022 -0.28620995399540
 6 -9.53946497409741 -1.76986716171617 -0.85876399139914
 7 -5.00568334993499  0.39093035353535  0.75899341974197
 6 -4.32589019431943 -0.77672829322932  0.86939884268427
 6 -2.88803976517652 -0.47812308440844  1.26717215841584
 6 -3.03406369556956  1.07549868236824  1.69746255265527
 6 -4.40801888858886  1.56082646304630  1.11563782498250
 6 -3.07210500150015  1.24810129742974  3.26790031613161
 6 -1.94890917181718 -0.68613262336234  0.10589991579158
 6 -0.48209646364636 -0.36324455585559  0.55221380428043
 6  0.49114849324932 -0.61783521562156 -0.61064271607161
 8  0.17753830353035 -0.85333673747375 -1.75438471877188
 8  1.79945697069707 -0.28943385018502 -0.26917113721372
 7 -7.07898550705070  2.72015342264226  0.35675083188319
 6 -6.05633276427643  3.43798475237524  0.78038602260226
 6 -6.37826581628163  4.76685731613161  0.75718348284828
 6 -7.71703229862986  4.78799868656866  0.32849975697570
 6 -8.13829438263826  3.51205149644964  0.10749108830883
 6 -5.56345212641264  5.86914800610061  1.31999852505251
 6 -8.60356956935694  5.94078914691469  0.21994201610161
 6 -8.22411160896089  7.24808089238924  0.12865860356036
 7 -9.12190722642264  0.63815029332933 -0.39234093939394
 6 -9.79939159815981  1.71762244484448 -0.48726385058506
 6 -11.19665440834084  1.41014200460046 -1.01736648624862
 6 -11.28189671037104  0.11261513881388 -1.16974624082408
 6 -9.96250613431343 -0.43610209830983 -0.81369067196720
 6 -12.19992823492349  2.49670195109511 -1.40801133203320
 6 -12.32381242694269 -0.76771783398340 -1.74837001420142
 6 -12.19681601360136 -1.09072295749575 -3.15043314871487
 7 -7.20848710081008 -1.40818017961796 -0.17109022772277
 6 -8.34492971527153 -2.21736767626763 -0.53469127502750
 6 -7.86525419291929 -3.61270545344534 -0.44190261926193
 6 -6.56825234723472 -3.64846916241624 -0.13846633873387
 6 -6.27781255945595 -2.28337449194919  0.12542416381638
 6 -8.63862420712071 -4.79769258815882 -0.87576712371237
 6 -5.32697923562356 -4.48540452575258  0.17353585348535
 8 -5.24545590739074 -5.64495714931493  0.20234626942694
 6 -4.31454486448645 -3.38543147724772  0.53657454945495
 6 -3.58075243944394 -3.78948503310331  1.90024120382038
 8 -3.76404005860586 -3.19346257905791  2.90867458275828
 8 -2.78386973487349 -4.84844299679968  1.69526761476148
 6 -2.00853349184919 -5.32350281958196  2.87561889888989
 6  2.93277705430543 -0.47242650035003 -1.21912728762876
 6  4.23711703410341 -0.35501935133513 -0.60549307800780
 6  5.17534114151415  0.55618894339434 -0.99134903510351
 6  5.13321073767377  1.45465000130013 -2.21777886898690
 6  6.47333379097910  0.48637744464446 -0.17069375557556
 6  7.67577531643164 -0.11029291119112 -0.96779644834483
 6  8.89448853125313 -0.05522525602560 -0.11356395059506
 6  10.29179007200720 -0.54315141344134 -0.86580297469747
 6  10.08552573877388 -1.97342667756776 -1.28548020952095
 6  11.30520163726373 -0.30445133573357 -0.00870067136714
 6  12.77040420942094 -0.38207472337234 -0.67384792459246
 6  13.96763245104511 -0.04679144234423  0.21552876587659
 6  15.32811815581558 -0.30550316201620 -0.42871592189219
 6  15.64836893909391 -1.66964975077508 -0.78428570837084
 6  16.34847810181018  0.28700308640864  0.45811499619962
 6  17.69248495279528  0.55565369116912 -0.21673995389539
 6  18.71093649314932  1.28456030283028  0.71743410511051
 6  20.16539421922192  1.28454419901990  0.27846745034503
 6  20.42367259615962  1.94925057305731 -1.19501532293229
 6  21.17305517961796  1.94202857225723  1.24977167876788
 1 -3.92414267276728  3.54535291699170  1.40497501850185
 1 -10.13367711941194  3.80023760766077 -0.54963926652665
 1 -10.32548180998100 -2.46576663136314 -1.24118766626663
 1 -2.61412010271027 -1.01199086278628  2.13480071867187
 1 -2.13324296229623  1.65543403200320  1.34803917041704
 1 -2.04550827412741  1.14862035103510  3.82849306270627
 1 -3.14306909310931  2.33822327892789  3.45954052155216
 1 -3.93861484268427  0.55953032073207  3.73129701420142
 1 -2.13801632853285 -1.77894381478148 -0.40236522252225
 1 -2.16246044824482  0.11491358265827 -0.71651675327533
 1 -0.31561865586559  0.62831075457546  0.67979023092309
 1 -0.13986994069407 -0.97072004740474  1.46368924482448
 1 -5.14347651535154  6.31728690379038  0.44494627682768
 1 -6.37668233853385  6.71411120992099  1.64629931913191
 1 -4.83867709650965  5.62934810621062  1.97896157485748
 1 -9.57619511841184  5.59157209330933  0.28954679917992
 1 -8.80190083048305  8.24856344584458  0.12341293459346
 1 -7.09252428902890  7.52313288248825 -0.07506197679768
 1 -11.93680909370937  3.16842414771477 -2.32903920232023
 1 -13.22881809530953  2.10377601570157 -1.82503602730273
 1 -12.37315427682768  3.04751783718372 -0.55296679467947
 1 -12.28631115921592 -1.78083048124813 -1.12020222812281
 1 -13.46430243384338 -0.54270808380838 -1.60369772677268
 1 -12.87901836803680 -1.76397763696370 -3.50275327302730
 1 -12.05153532753275 -0.25118384428443 -3.86590416541654
 1 -11.16233958155816 -1.62229517351735 -3.50727984348435
 1 -8.82716361226123 -4.88378122642264 -1.91557913931393
 1 -8.21369507050705 -5.68258836703670 -0.55849007710771
 1 -9.66216838263826 -4.66092287928793 -0.28115637183718
 1 -3.60159029102910 -3.28981056555656 -0.17608426142614
 1 -1.65819690969097 -4.59387776507651  3.53213990099010
 1 -2.97058224562456 -5.88175881828183  3.35545276737674
 1 -1.21769319581958 -5.94542871997200  2.22793949684969
 1  2.83129780088009 -1.60592028192819 -1.60671474777478
 1  2.84795649584959  0.31834475287529 -2.12668468826883
 1  4.24287351165117 -0.87810581678168  0.36857923412341
 1  4.14392532883288  1.70757185348535 -2.53598694099410
 1  5.14778807720772  2.46476086628663 -1.90212456705671
 1  5.59303462626263  1.05107543774377 -3.12590388968897
 1  6.77333035633563  1.53152938063806  0.02027952565257
 1  6.25341868986899  0.08452520362036  0.70035104220422
 1  7.56023976607661 -1.20073114481448 -1.29592372107211
 1  7.82855438643864  0.55003187968797 -1.86904705160516
 1  9.24186028322832  0.87240985748575  0.60980494299430
 1  8.55715353815382 -0.88959731513151  0.59770438903890
 1  10.50481219271927  0.05826059235924 -1.73546737733773
 1  9.28409490589059 -2.07761480578058 -2.07550251145115
 1  11.04684776947695 -2.42218873147315 -1.78762494849485
 1  9.88108558215822 -2.72797442004200 -0.45101719241924
 1  11.33988875107511  0.66210061756176  0.41144310771077
 1  11.39323973367337 -1.09685202330233  0.70618809180918
 1  12.81536727242724 -1.48283514491449 -1.01212954785479
 1  12.76210511651165 -0.04211473247325 -1.61159952375238
 1  13.87368887208721  1.01414466996700  0.57261392189219
 1  13.95281137143714 -0.63725616291629  1.10075524522452
 1  15.49981237333733  0.30331019141914 -1.37537719721972
 1  15.49343134413441 -2.66433315921592  0.01819422182218
 1  14.90233776557656 -1.84850304390439 -1.61991971237124
 1  16.62361041964197 -1.94581851045104 -1.11469357815782
 1  16.03622883258326  1.31885095779578  0.71907532853285
 1  16.50174187618762  0.10987459175918  1.63088602030203
 1  18.27417660956096 -0.49137610141014 -0.47668367596760
 1  17.44202428362836  1.13676493499350 -1.02859634353435
 1  18.48160684348435  2.34316621622162  0.62522762366237
 1  18.67137341474147  0.79946355765577  1.69615596719672
 1  20.32438250495049  0.09646608240824  0.29673742414241
 1  20.03593042634263  3.06712569746975 -1.06789705920592
 1  21.54399051295130  2.00217609550955 -1.60318157215722
 1  19.96440727392739  1.33325472777278 -2.01430185348535
 1  21.03647366266627  1.49767907170717  2.24323376497650
 1  22.21695633613361  1.96699523072307  0.92830709690969
 1  20.80825335793579  3.00738441464146  1.17187311851185

