%nproc=4
%Mem=2GB
# td=(NStates=1) CAM-B3LYP/6-31G(d,p) 

TD

0 1
12 -7.11797346664666  0.57226546724672  0.14207225582558
 6 -4.85507438853885 -1.94098620992099  0.46018165306531
 6 -4.80756006230623  2.82569689698970  1.18245170237024
 6 -9.33338792759276  3.05375777517752 -0.35281661466147
 6 -9.48969999759976 -1.74383455845585 -0.85975409040904
 7 -5.13218600020002  0.44566582708271  0.51772929332933
 6 -4.35263286858686 -0.70529114951495  0.67885978877888
 6 -2.95407636883688 -0.31134640674067  1.21441688288829
 6 -3.05936622582258  1.09450058255826  1.64211701810181
 6 -4.41337942464246  1.47647802820282  1.12741900310031
 6 -2.90704849584959  1.24605109240924  3.13084661076108
 6 -1.92828710961096 -0.53458746884688  0.04248357415742
 6 -0.48506676067607 -0.26252448384839  0.51333991689169
 6  0.48850822922292 -0.68711214331433 -0.64879653145315
 8  0.25307585728573 -1.12359376317632 -1.70667994829483
 8  1.83543056805681 -0.43647855465547 -0.24384860496050
 7 -7.01588919741974  2.62710411771177  0.26631178797880
 6 -6.01514864586459  3.33815476937694  0.77576556055606
 6 -6.35981397109711  4.72660329072907  0.87694545904590
 6 -7.70235083048305  4.77880776747675  0.40999790679068
 6 -8.14799535273527  3.48365865716572  0.11434177337734
 6 -5.58234401560156  5.84317540884088  1.33707023222322
 6 -8.68034724712471  5.81737680568057  0.54827484938494
 6 -8.44828402620262  7.15751183548355  0.29374511221122
 7 -9.08636367206721  0.70837731603160 -0.52994469976998
 6 -9.85890754975497  1.79859054165417 -0.71024614881488
 6 -11.07519226212621  1.47704869526953 -1.16777152675267
 6 -11.25765428612861  0.04944882218222 -1.26301556775678
 6 -9.89493937763776 -0.41541002910291 -0.83815311821182
 6 -12.26612485458546  2.48743102400240 -1.39273980488049
 6 -12.37034708040804 -0.77498856105611 -1.75139031623162
 6 -12.34712104410441 -1.05992987818782 -3.28168627402740
 7 -7.23524977707771 -1.42503186478648 -0.06739985868587
 6 -8.27864308660866 -2.16286222572257 -0.50909871577158
 6 -7.83159082658266 -3.67191137403740 -0.58838726772677
 6 -6.47450297229723 -3.60426474197420 -0.21777426952695
 6 -6.15114989318932 -2.23584973947395  0.12665428682868
 6 -8.57386773147315 -4.77724054295430 -0.89310885788579
 6 -5.29941647934793 -4.41295728102810  0.17790629052905
 8 -5.10298165996600 -5.58369102270227  0.18889492429243
 6 -4.14666807680768 -3.34442737683768  0.58003889588959
 6 -3.49081344554455 -3.64431051565156  1.92016319601960
 8 -3.73250690529053 -3.05830906370637  2.97440115541554
 8 -2.64952630053005 -4.71040919341934  1.79375746374637
 6 -2.15734837333733 -5.07436790609061  3.08307964496450
 6  2.74420819741974 -0.73301255895590 -1.21270664556456
 6  4.07387070947095 -0.45098894829483 -0.57005953465347
 6  5.08958256565657  0.40050337483748 -0.93589348954895
 6  5.06551396799680  1.32762729902990 -2.15474256535654
 6  6.31513797139714  0.47434624152415 -0.10254694089409
 6  7.56787452635264 -0.00050193209321 -0.77308697739774
 6  8.87214629702970 -0.07797753125313 -0.00700329452945
 6  10.13929482248225 -0.42274937323732 -0.87983437783778
 6  10.01479866606661 -1.88417775267527 -1.44691635313531
 6  11.40978209530953 -0.26782767336734 -0.03559336063606
 6  12.68954612361236 -0.57035355125513 -0.74015455525553
 6  13.83633932173217 -0.15523228642864  0.14683189618962
 6  15.31902724672467 -0.18819143084308 -0.42549559985999
 6  15.86872097429743 -1.65420820662066 -0.85327260706071
 6  16.37346060006000  0.46336072217222  0.49670885558556
 6  17.86514221852185  0.53656178197820 -0.14932321222122
 6  18.81981738123812  1.21206305310531  0.76046840854085
 6  20.18197587738774  1.24343008760876  0.20298990259026
 6  20.26969719861986  2.01942759075908 -1.13743956535654
 6  21.27376525062506  1.76495086448645  1.10801750335033
 1 -3.98500875937594  3.36679506120612  1.32870739173917
 1 -10.14188794049405  3.71891947584758 -0.26893119571957
 1 -10.25140440224022 -2.36551660636063 -1.18992253975397
 1 -2.95688437913791 -0.97426709040904  2.08132537113711
 1 -2.37365700370037  1.56347483608361  0.96206057255726
 1 -1.96949067236724  0.93914940394039  3.56983719711971
 1 -2.90505529172917  2.39024848144815  3.30315488298830
 1 -3.88757973917392  0.68182254995500  3.40377426192619
 1 -2.14514704160416 -1.61510743114311 -0.39445443144314
 1 -2.14321852405241  0.19488157945795 -0.84556965856586
 1 -0.22096919091909  0.85658358185819  0.71752400430043
 1 -0.07475342904290 -0.93008598399840  1.31165404130413
 1 -5.11726389408941  6.43531870697070  0.43574535673567
 1 -6.28416308660866  6.52571237003700  1.84772946214621
 1 -4.72160538933893  5.49772494389439  1.92648632733273
 1 -9.85560305920592  5.78499143524353  0.86564440894089
 1 -9.21715235563556  7.99626821632163  0.38186878017802
 1 -7.36180121672167  7.58010858005801 -0.14147861846185
 1 -11.92186759955996  3.08296560186019 -2.22290858925893
 1 -13.23777899139914  2.03907954605461 -1.66184970867087
 1 -12.43873083448345  3.19466255165517 -0.39828132613261
 1 -12.12883541164116 -1.94645704390439 -0.99857006490649
 1 -13.34702070567057 -0.30103391639164 -1.37897525452545
 1 -13.18680914711471 -1.49046028522852 -3.37768076577658
 1 -12.27511768576858 -0.17067579347935 -4.04985256025603
 1 -11.34269761736174 -1.54320726472647 -3.46609572507251
 1 -8.81923281918192 -4.99956280458046 -1.98854643604360
 1 -7.93237693869387 -5.65688579677968 -0.64887911601160
 1 -9.47671983778378 -4.78155494249425 -0.23477173337334
 1 -3.33545367736774 -3.70391197569757 -0.18219487248725
 1 -1.60599168916892 -4.39912829012901  3.64442112911291
 1 -2.99605479287929 -5.43688433083308  3.69259648174818
 1 -1.66372779927993 -5.80222439953995  2.68640534343434
 1  2.57290196129613 -1.72495218511851 -1.65962003830383
 1  2.46100780098010  0.11626454485449 -2.05787780758076
 1  4.17240646494650 -1.25906391259126  0.22172454865487
 1  4.11657259355936  1.36856795309531 -2.68237157945795
 1  5.27539083748375  2.40403479367937 -1.85308966356636
 1  6.06741206400640  1.01159148934893 -2.81146244554455
 1  6.51134415771577  1.52917914561456  0.17055455315532
 1  6.14217756575658  0.12803955505551  0.99099010611061
 1  7.29386312841284 -0.87548862056206 -1.13734786348635
 1  7.56679821082108  0.67972484898490 -1.83091323822382
 1  9.11954805200520  0.76693931043104  0.47129109160916
 1  8.86958478127813 -0.74888324372437  0.79300391899190
 1  10.07885959745975  0.25844061036104 -1.75491932253225
 1  9.19555605200520 -2.01687873217322 -2.29508446964696
 1  10.85771885658566 -2.26404291689169 -1.90362654865487
 1  9.94616208980898 -2.60838246084608 -0.54637672837284
 1  11.58965372757276  0.76033044054405  0.42845480888089
 1  11.41281169086909 -0.95764810291029  0.91998947194719
 1  12.93707944364436 -1.47599446084608 -1.08640697559756
 1  12.60074898089809 -0.01671219221922 -1.64711307510751
 1  13.71376287948795  0.91310456595660  0.61813847434743
 1  13.70965705600560 -0.84255669296930  1.09051422112211
 1  15.39762215431543  0.51473133353335 -1.28862852235223
 1  16.01098309930993 -2.29504623052305 -0.06996459405941
 1  14.88041557335734 -2.42608080168017 -1.20392811321132
 1  16.63766182478248 -1.54879880848085 -1.66180828962896
 1  16.11186639633963  1.53076214891489  0.86276969796980
 1  16.23709541154115 -0.02793918961896  1.42120505220522
 1  18.22081127302731 -0.49424638843884 -0.26225223282328
 1  17.85257533873387  0.99678093659366 -1.04361784568457
 1  18.51212989578958  2.14657655725573  1.03146824772477
 1  18.96489276667667  0.85386899819982  1.85651200280028
 1  20.43428349504950  0.31418785458546  0.04955270567057
 1  19.92346918021802  3.06370535543554 -0.90405067456746
 1  21.32030814471447  2.10893677157716 -1.36321757575758
 1  19.91056188938894  1.69139054135414 -2.06224664796480
 1  21.25655567086709  1.10589989378938  1.95598504010401
 1  22.22844748524852  2.01897042824282  0.63122738893889
 1  20.81994452705271  2.75525920212021  1.59697562876288

