%nproc=4
%Mem=2GB
# td=(NStates=1) CAM-B3LYP/6-31G(d,p) 

TD

0 1
12 -7.14043571287129  0.55776401710171  0.03555160376038
 6 -4.84182306340634 -1.99922203350335  0.46972260716072
 6 -4.71954126042604  2.76176050335033  1.19356281348135
 6 -9.44216880568057  3.04164656405641 -0.37057839083908
 6 -9.57409843744374 -1.79663983898390 -0.73139125412541
 7 -5.09436221782178  0.37022828332833  0.62650017041704
 6 -4.26937454275428 -0.69369999039904  0.80144204700470
 6 -2.81792275347535 -0.35435070717072  1.22388782998300
 6 -3.04685497469747  1.02667379987999  1.74327713411341
 6 -4.33925201190119  1.43365374577458  1.12303856505651
 6 -3.07390518151815  1.23582006930693  3.20267379347935
 6 -1.86946122702270 -0.59272328242824  0.05918524432443
 6 -0.41037929192919 -0.46321455285529  0.47358594149415
 6  0.54062344074407 -0.56238967106711 -0.68944059585959
 8  0.17987853755376 -0.91067247104710 -1.83008228852885
 8  1.84326135113511 -0.35869077587759 -0.24011823192319
 7 -7.07646525502550  2.59951135843584  0.32392754955496
 6 -6.04256138713871  3.36135708960896  0.79104708870887
 6 -6.39653764346435  4.74735536593659  0.85400316481648
 6 -7.70486108150815  4.87075696239624  0.38911581858186
 6 -8.14136468966897  3.43516380768077  0.07624796399640
 6 -5.43253903510351  5.79896098739874  1.40588711391139
 6 -8.60801001340134  6.01252632063206  0.45383540544054
 6 -8.26078527632763  7.28021410571057  0.17692343004300
 7 -9.14942997869787  0.55228170647065 -0.51668337363736
 6 -9.83455511451145  1.74107479007901 -0.66925204940494
 6 -11.13868861176118  1.41220221062106 -1.13962871247125
 6 -11.20320884158416  0.10388426572657 -1.30669993619362
 6 -9.94581446514652 -0.47228571667167 -0.81257055995600
 6 -12.24190243234323  2.45041732263226 -1.40136066696670
 6 -12.37007705340534 -0.79132019421942 -1.79431460866087
 6 -12.28690502250225 -1.02475636083608 -3.33282138753875
 7 -7.17843409550955 -1.42794215581558 -0.08534165286529
 6 -8.25334055635564 -2.20126606610661 -0.49100690659066
 6 -7.85693336083608 -3.62047623052305 -0.48162659165917
 6 -6.48656417841784 -3.51461577707771 -0.09712220432043
 6 -6.18598337653765 -2.24287044154415  0.14463608500850
 6 -8.64002434713471 -4.86753957285729 -0.77580712771277
 6 -5.36152268996900 -4.36247223252325  0.26759525942594
 8 -5.15444680648065 -5.61219387298730  0.19185522032203
 6 -4.13267667766777 -3.28291122522252  0.55902679467947
 6 -3.56771113531353 -3.64289037363736  1.87191837153715
 8 -3.79624327892789 -3.13601683448345  2.96457017231723
 8 -2.56258760666067 -4.64543269576958  1.74569265726573
 6 -1.99273191169117 -5.09573004230423  3.04069540654065
 6  2.77605138173817 -0.56879613731373 -1.21520689558956
 6  4.10737405980598 -0.35313916331633 -0.56344887358736
 6  5.11023463086309  0.40805412991299 -0.96464636483648
 6  4.96679409600960  1.31169570587059 -2.16431352245225
 6  6.42829928752875  0.49958876577658 -0.20225691189119
 6  7.62727046594659 -0.14681656355636 -0.96094576327633
 6  8.86996607900790  0.12973323982398 -0.14261685588559
 6  10.15210610361036 -0.37328442674267 -0.82412880728073
 6  10.02830001620162 -1.83872320722072 -1.36584824632463
 6  11.40901201830183 -0.25066595719572 -0.01637143844384
 6  12.75026219521952 -0.55780229612961 -0.74492503230323
 6  13.92442813061306 -0.11352811601160  0.10635784878488
 6  15.26611195519552 -0.24573718541854 -0.47323037333733
 6  15.65977007920792 -1.73052583838384 -0.87897517731773
 6  16.38867212121212  0.30574496059606  0.57800698539854
 6  17.75413111741174  0.40574870067007 -0.11501978187819
 6  18.77470286978698  1.19306115291529  0.75436779847985
 6  20.14109178897890  1.30595634023402  0.16977658125813
 6  20.16649687858786  2.15475112311231 -1.08445426682668
 6  21.03346122022202  1.74422879227923  1.26059276087609
 1 -3.88819907840784  3.59123750545055  1.35695021602160
 1 -10.14436818851885  3.75561314521452 -0.85243954655466
 1 -10.28048731053105 -2.67405746044604 -1.22141568906891
 1 -2.62490118081808 -1.05877554125413  1.95324256285629
 1 -2.34499413741374  1.68438692729273  1.25333970047005
 1 -2.09989371267127  1.08995448444844  3.76633684708471
 1 -3.62614740094009  2.21058051465147  3.52911747924792
 1 -3.85509649084909  0.44866923462346  3.63027691219122
 1 -1.81664419131913 -1.71538745914591 -0.42327731373137
 1 -1.96106030823082  0.09435152645264 -0.73272837443744
 1 -0.07113420742074  0.57612553605361  1.07525977787779
 1 -0.21384733843384 -1.19070204560456  1.40531340724072
 1 -4.95343751145114  6.21590676577658  0.57405918811881
 1 -6.02631730203020  6.57945774457446  1.88064275347535
 1 -4.76540976977698  5.39939511091109  2.13809748844884
 1 -9.67910540944094  5.91521445754575  0.56313415791579
 1 -9.01920256065606  8.20275886538654  0.42465305860586
 1 -7.34347938453845  7.72893346254626 -0.03605807640764
 1 -12.05974138693869  2.92601990729073 -2.42954925332533
 1 -13.25850106360636  1.87679331743174 -1.42738626232623
 1 -12.16949391079108  3.32941602700270 -0.61606310431043
 1 -12.42153468156816 -1.86472887108711 -1.30246045394539
 1 -13.28570457405741 -0.42735654865487 -1.73775113211321
 1 -12.99923038923892 -1.74969620882088 -3.54911790949095
 1 -12.64181435543554 -0.02784151005100 -3.79465704070407
 1 -11.16595994359436 -1.42174511851185 -3.72857197269727
 1 -8.94032492839284 -4.79954280258026 -1.82939052045204
 1 -8.10755445644564 -5.53736384458446 -0.69582381048105
 1 -9.59572173797380 -4.99451623862386 -0.39740799699970
 1 -3.42760289228923 -3.49129071357136 -0.25203185618562
 1 -1.20104119411941 -4.45242361966197  3.42732941994199
 1 -2.78959414681468 -5.33524416681668  3.66240346244624
 1 -1.37413884038404 -6.08551272837284  2.76075277817782
 1  2.69554422552255 -1.67944763466347 -1.66460053635363
 1  2.70482218241824  0.35380829922992 -1.94029604940494
 1  4.41269049334934 -1.01665967216722  0.17116949314931
 1  3.91514245054505  1.90693178947895 -2.37443078537854
 1  5.56101940034003  2.19683407360736 -2.03630798539854
 1  5.21261658445845  0.75910624082408 -3.01594289358936
 1  6.61287431073107  1.35810203790379 -0.18717121942194
 1  6.49920326832683  0.06475322642264  0.75021602870287
 1  7.43763750585059 -1.33549462116212 -1.06469059775978
 1  7.73258478947895  0.47439431593159 -2.03288343524352
 1  8.95513161036104  1.21832444894489 -0.06966300380038
 1  8.76921474427443 -0.31918027342734  0.93762838143814
 1  10.13421513301330  0.39648441474147 -1.65673950455046
 1  9.26170266666667 -1.99133617791779 -2.23680864206421
 1  11.09791287598760 -2.16916342894289 -1.69213539953995
 1  9.88577605120512 -2.51063268586859 -0.56299839053905
 1  11.33734849704970  0.90530493799380  0.30104206760676
 1  11.33495390509051 -0.92667500560056  0.92216968996900
 1  12.82534827052705 -1.72973983538354 -0.84305264016402
 1  12.96060496649665 -0.10025054605461 -1.63963232703270
 1  13.82455395859586  0.96526978247825  0.29603626412641
 1  13.82955904620462 -0.88050048734873  1.05886105580558
 1  15.41205359745975  0.47417727812781 -1.37443710321032
 1  15.72000400140014 -2.47612433833383 -0.21655925352535
 1  14.94712224402440 -2.09134732833283 -1.56444416481648
 1  16.65620367896790 -1.47290121872187 -1.34805691449145
 1  15.89270448014801  1.39504857755776  0.71486490749075
 1  16.35369707170717 -0.28809520522052  1.47145007670767
 1  18.16483567546755 -0.61922888668867 -0.05278128572857
 1  17.76874695589559  0.80001125962596 -1.13813729762976
 1  18.30989967276728  2.13569546914691  1.04391949284928
 1  18.93200947834783  0.67596120742074  1.91771812341234
 1  20.49132919961996  0.28713514931493 -0.05951820142014
 1  19.99048588188819  3.05047403230323 -0.72264253375338
 1  21.22498861276128  2.16329220712071 -1.67099835383538
 1  19.46144697789779  1.99067046934694 -1.99029945324532
 1  21.05065508080808  1.06675597939794  2.16899634123412
 1  22.14849949044904  1.62691122232223  0.88633289948995
 1  20.79238177077708  2.69746342254225  1.55589152035204

