%nproc=4
%Mem=2GB
# td=(NStates=1) CAM-B3LYP/6-31G(d,p) 

TD

0 1
12 -7.12140380968097  0.58691693239324  0.18614666326633
 6 -4.79779866096610 -1.90435254655466  0.53738937383738
 6 -4.85838514481448  2.91058538583858  1.15410886808681
 6 -9.49499408820882  3.07542994239424 -0.40456178917892
 6 -9.59213024062406 -1.76069624462446 -0.75528364336434
 7 -5.09166194779478  0.43946520702070  0.63061058145815
 6 -4.28053565886589 -0.67903852425242  0.71117302010201
 6 -2.96184714591459 -0.26112138423842  1.14176961816182
 6 -3.02686297549755  1.18096922942294  1.54506731313131
 6 -4.36118420512051  1.46578695909591  1.09000526172617
 6 -2.88981677267727  1.37260374767477  3.11137466356636
 6 -1.87331161206121 -0.56675068516852 -0.02403307750775
 6 -0.47019527352735 -0.42584081548155  0.52595117801780
 6  0.54511388978898 -0.69052248434843 -0.51503315511551
 8  0.19637018671867 -1.05154655845585 -1.72058133843384
 8  1.82031905690569 -0.47188209500950 -0.20630485058506
 7 -7.22260986948695  2.65526693399340  0.31076623342334
 6 -6.12473960496050  3.40854180808081  0.71336932093209
 6 -6.59467745744575  4.78341897229723  0.81060882538254
 6 -7.86348694409441  4.83114300100010  0.38179508650865
 6 -8.21790234343434  3.47526781808181  0.01313165236524
 6 -5.74579036023602  5.89908099939994  1.40547707290729
 6 -8.72341155355536  6.02171723972397  0.24478450035003
 6 -8.30853005080508  7.28231431573157 -0.03870813311331
 7 -9.17699273497350  0.68131460976098 -0.50950265556556
 6 -9.96576823582358  1.78471915451545 -0.66367149134913
 6 -11.24444918781878  1.39809079947995 -1.08680342994299
 6 -11.28929745044504  0.03565744304430 -1.12070133633363
 6 -10.02061194489449 -0.46533502160216 -0.74048335123512
 6 -12.41015925802580  2.40473275417542 -1.20649118001800
 6 -12.33108315401540 -0.87865892809281 -1.61438661586159
 6 -12.42534886688669 -1.07169105430543 -3.10751885728573
 7 -7.31156740884088 -1.45208457005701  0.08540542184218
 6 -8.24513973627363 -2.27683362286229 -0.29249705560556
 6 -7.86475414291429 -3.54933911681168 -0.53697212621262
 6 -6.53137865986599 -3.58730304580458 -0.03527601970197
 6 -6.16294107230723 -2.17022317681768  0.22337395879588
 6 -8.56546689138914 -4.79866268516852 -0.95281482848285
 6 -5.25581211891189 -4.34059004430443  0.09097759765977
 8 -5.10308166996700 -5.48363101670167 -0.02613657885789
 6 -4.03419682968297 -3.32106504060406  0.48368926092609
 6 -3.50860522472247 -3.68338442304230  1.72387356705671
 8 -3.64051770637064 -3.14657789058906  2.80718443374337
 8 -2.63176452435244 -4.72850100260026  1.61188927692769
 6 -2.07833047154715 -5.20654112341234  2.93014435143514
 6  2.91077485408541 -0.70563982168217 -1.15769114401440
 6  4.11137445984598 -0.46920076947695 -0.40969349804981
 6  5.08944255165517  0.33688701320132 -0.92954285448545
 6  5.02930034663466  1.15346988328833 -2.21928902000200
 6  6.53976043364336  0.41372017891789 -0.25738242444244
 6  7.68658639753975 -0.12183406530653 -1.01784145284528
 6  8.86924600700070 -0.10202993649365 -0.13608620282028
 6  10.20177107010701 -0.57146424472447 -0.89909630403040
 6  10.04734192039204 -2.12217155205521 -1.32932459395940
 6  11.40988210531053 -0.31836272687269 -0.00878067936794
 6  12.75965313431343 -0.46751326722672 -0.70341088088809
 6  14.02770845864586 -0.11302806600660  0.23788100110011
 6  15.33144848884888 -0.10235284698470 -0.45362841314131
 6  15.69817391959196 -1.54725751155116 -1.12405968576858
 6  16.49488274227422  0.42876726282628  0.40008919361936
 6  17.85757146144615  0.54616274207421 -0.10860914081408
 6  18.85818121762176  1.30244209100910  0.83971633333333
 6  20.25589326912691  1.29893563816382  0.29989959355936
 6  20.45269549844984  2.08831447944794 -0.99586540794079
 6  21.21692956705671  1.69976434583458  1.42475917751775
 1 -4.03842410091009  3.65024340604060  1.48437295829583
 1 -10.01222497419742  3.87594517841784 -0.64633893649365
 1 -10.43331259305931 -2.54559461416142 -0.60842438993899
 1 -2.70118880958096 -0.92841250495049  1.92546978557856
 1 -2.23582322032203  1.70228871747175  1.11537590409041
 1 -1.85330905420542  1.11166665566557  3.50398061146115
 1 -2.93368815501550  2.42227168376838  3.37842240974097
 1 -3.70331131233123  0.93861822952295  3.70321420592059
 1 -1.91249377627763 -1.53423934433443 -0.52513749974998
 1 -2.14354855705571  0.39553164446445 -0.60850595219522
 1 -0.09878697269727  0.59101702520252  0.86764901680168
 1 -0.25708166186619 -1.13824680008001  1.41957483338334
 1 -5.01250341804180  6.41801697679768  0.73062484468447
 1 -6.36889155945595  6.52459225802580  2.01391608080808
 1 -5.18220144894489  5.33494866626663  2.17132081078108
 1 -9.88326582548255  5.83369630573057  0.34432227672767
 1 -8.92912355275528  8.18510710021002  0.17829842314231
 1 -7.31987702430243  7.56380694989499 -0.12229670027003
 1 -12.25411082388239  3.12862016731673 -1.93895019341934
 1 -13.31195640914091  1.88634427252725 -1.49596312001200
 1 -12.75392235363536  2.87971105650565 -0.21680317831783
 1 -12.19533206130613 -1.78674107230723 -0.95970617851785
 1 -13.38349435303530 -0.17297111011101 -1.28583594059406
 1 -13.22677314351435 -1.70369160836084 -3.29922291999200
 1 -12.73967414141414 -0.11808053395340 -3.68958653365337
 1 -11.40311365896590 -1.51279422342234 -3.21060017551755
 1 -8.79045994189419 -4.77924077237724 -2.06039362076208
 1 -7.79999370037004 -5.73234334253425 -0.94933916201620
 1 -9.56281844764476 -5.01340812781278 -0.27728598479848
 1 -3.35498563056306 -3.50604218871887 -0.30807746074608
 1 -1.69814090409041 -4.45485386268627  3.40475716271627
 1 -3.06780196759676 -5.46025666806681  3.37158438053805
 1 -1.15298672517252 -5.92537671477148  2.60719742264226
 1  2.64885955705571 -1.78495818571857 -1.35160923722372
 1  2.72123382358236 -0.00013709530953 -2.14467648744874
 1  4.19948917321732 -1.20589859605961  0.30666304250425
 1  3.98896983328333  1.35194629092909 -2.63125646794679
 1  5.58341163956396  2.18237262746275 -1.98504285888589
 1  5.89635495829583  0.92849317951795 -2.97612891219122
 1  6.65293831713171  1.37924415211521  0.14422191989199
 1  6.50060340834083 -0.02968621752175  0.63576458355836
 1  7.45806954905491 -1.24251532323232 -1.04359848854885
 1  7.90575210621062  0.25763263976398 -2.10616076297630
 1  8.97776387358736  0.81473408990899  0.19100306280628
 1  8.79203702650265 -0.68387674307431  0.79667428602860
 1  10.60159187068707  0.00954572087209 -1.85434926552655
 1  9.05336183258326 -2.06910395469547 -1.93117807900790
 1  11.04271735643564 -2.35120163276328 -1.98293447944794
 1  9.97417489108911 -2.75803742634263 -0.28873096379638
 1  11.39121388358836  0.77935234273427  0.46631859525953
 1  11.40766117581758 -1.06696903500350  0.93469094209421
 1  12.83850958665867 -1.41836869826983 -1.04181251615161
 1  12.71260016601660  0.23247272627263 -1.45200356415642
 1  13.93255475867587  0.90051330683068  0.85997265776578
 1  14.03693978427843 -1.00642307960796  1.11674684438444
 1  15.33192558465847  0.59574943534353 -1.22668232773277
 1  15.93137513851385 -2.21258798469847 -0.36643424102410
 1  15.16830436223622 -2.11058925252525 -1.71127884828483
 1  16.44562262086209 -1.47634156275628 -1.87690979977998
 1  16.00440565026502  1.28443751645164  0.95756917791779
 1  16.56731843384339 -0.18401479717972  1.35120805250525
 1  18.25216440834084 -0.43786074987499 -0.46800280788079
 1  17.75727580878088  1.12997425592559 -1.14336782068207
 1  18.46524520732073  2.28471037063706  1.21641674257426
 1  18.83703998139814  0.63354696599660  1.78476482808281
 1  20.60926099279928  0.29251568736874 -0.09589183878388
 1  20.37630446374638  3.27370635553555 -0.74681495099510
 1  21.59975608950895  2.08458433633363 -1.35358661266127
 1  19.85571640484048  1.88366976927693 -1.80159058235824
 1  21.30416043134313  0.94989429322932  2.22741218281828
 1  22.28991363186319  1.76115464666467  1.07226149234923
 1  21.00053258585859  2.83761743794379  1.77088301950195

