%nproc=4
%Mem=2GB
# td=(NStates=1) CAM-B3LYP/6-31G(d,p) 

TD

0 1
12 -7.18693036233623  0.50564880558056  0.05687373597360
 6 -4.80274915601560 -1.96040815211521  0.50312594749475
 6 -4.85336464276428  2.85911023832383  1.19728318551855
 6 -9.46944153295329  3.04837723712371 -0.40396172917292
 6 -9.58391941954195 -1.75873604860486 -0.91273938893889
 7 -5.12287506910691  0.49606086658666  0.75996351675168
 6 -4.37699530483048 -0.69618023842384  0.72076397919792
 6 -2.92970393159316 -0.41110638273827  1.24007944914491
 6 -3.06173646284628  1.10876200870087  1.69473227962796
 6 -4.43737182388239  1.60404078447845  1.27016327752775
 6 -2.95953374437444  1.26692317961796  3.32285581168117
 6 -1.84437871877188 -0.52938694879488  0.09287861366137
 6 -0.40769902390239 -0.45586381778178  0.57904648754875
 6  0.62826220462046 -0.80018345044504 -0.54518617041704
 8  0.21247179687969 -1.13893529732973 -1.67353663396340
 8  1.86922394739474 -0.46172107890789 -0.26049026912691
 7 -7.11899950845085  2.58913032033203  0.29406456325633
 6 -6.06689382038204  3.38228918281828  0.72401038503850
 6 -6.49863785348535  4.78155878627863  0.86340410491049
 6 -7.74216481188119  4.84300418711871  0.43240014701470
 6 -8.17198775197520  3.45469576087609  0.05412575177518
 6 -5.73494927612761  5.92810390169017  1.50374689988999
 6 -8.71358057045705  5.91372644064406  0.29014903680368
 6 -8.38987818561856  7.27040312461246  0.21850758845885
 7 -9.08712374807481  0.62297877617762 -0.58614031933193
 6 -9.80461212021202  1.72378306090609 -0.64496962116212
 6 -11.23317806070607  1.42229321972197 -1.11175592519252
 6 -11.24961348204820  0.04510838813881 -1.19574884108411
 6 -9.99846973067307 -0.45659414751475 -0.85913521642164
 6 -12.23484172627263  2.42374465536554 -1.41523205410541
 6 -12.32109215491549 -0.84781584378438 -1.64260943814381
 6 -12.28375470747075 -1.14804869006901 -3.20116822222222
 7 -7.23177943004300 -1.38600796239624 -0.15287840654065
 6 -8.25336055835584 -2.25085102460246 -0.55770357625763
 6 -7.78819648714872 -3.57673185608561 -0.55753418241824
 6 -6.46420194219422 -3.53123743924392 -0.07469996209621
 6 -6.12758753695369 -2.15799195369537  0.13649527092709
 6 -8.57492783748375 -4.80103292219222 -0.88042758975898
 6 -5.31793833153315 -4.27934391969197  0.17502600250025
 8 -5.14494585638564 -5.50191284488449  0.08294432923292
 6 -4.13266667666767 -3.25494842894289  0.48769966196620
 6 -3.59001336553655 -3.58543462806281  1.89149032873287
 8 -3.75471912651265 -3.07226045884588  2.92673638893889
 8 -2.72135348324833 -4.62591074357436  1.77335542354235
 6 -2.20105274377438 -5.14564503380338  2.96008734573457
 6  2.83389716631663 -0.70628988668867 -1.33647902280228
 6  4.16502982538254 -0.59048289768977 -0.72257478617862
 6  5.11510511791179  0.35670899539954 -1.03162306250625
 6  5.12571998859886  1.34196873317332 -2.15781287238724
 6  6.37283374097410  0.38183699059906 -0.13426011221122
 6  7.64002174107411 -0.07129901180118 -0.90818048674867
 6  8.90160924332433 -0.03000273377338 -0.07111970617062
 6  10.24154504750475 -0.41329842814281 -0.78487488188819
 6  10.16302348854886 -1.85699503440344 -1.27112877437744
 6  11.44889600670067 -0.11334222482248  0.05486568526853
 6  12.77258442744274 -0.44637115301530 -0.69709024882488
 6  13.99524521232123 -0.06901366456646  0.09744695769577
 6  15.31005634963496 -0.14416702840284 -0.54457750805080
 6  15.69584368656866 -1.62514530033003 -0.97983526332633
 6  16.40044329832983  0.46295068116812  0.41315049974998
 6  17.81436714101410  0.46031415721572 -0.17818609850985
 6  18.78807420692069  1.24998684548455  0.70542290399040
 6  20.25011269106911  1.15504124872487  0.30726032963296
 6  20.36722695159516  2.01986763476348 -1.15289111051105
 6  21.14771264536454  1.68083245264526  1.32873957555756
 1 -4.05711597009701  3.79827820952095  1.55245976697670
 1 -10.15861961366137  3.72995057895790 -0.41678598119812
 1 -10.40228949074907 -2.42441249594959 -1.05233878137814
 1 -2.50693938463846 -0.99713937763776  2.01434867346735
 1 -2.45676531453145  1.87931642024203  1.14872923942394
 1 -2.06386010931093  0.90276576557656  3.61206141954195
 1 -2.96229101530153  2.22547200380038  3.83781834933493
 1 -3.79611059225923  0.57047141484148  3.55319920442044
 1 -1.96658918581858 -1.43824974537454 -0.42418740474047
 1 -2.05381958415842  0.14446653795380 -0.64692979457946
 1 -0.16733382738274  0.55291321482148  0.97186943884388
 1 -0.40349630333033 -1.13156613201320  1.41355423132313
 1 -5.29757192489249  6.62681785688569  0.74280606280628
 1 -6.59330400070007  6.55505530433043  1.96626131533153
 1 -4.99469269806981  5.87465263666367  2.34000767946795
 1 -9.84820231913191  5.72831576767677  0.25985382988299
 1 -9.17606824722472  8.08549713921392  0.21264185748575
 1 -7.17347238383838  7.61644221342134  0.10292582198220
 1 -12.04540995379538  2.93541084638464 -2.36790308870887
 1 -13.26202141564156  1.89215485358536 -1.61260478417842
 1 -12.46212317371737  3.04748783418342 -0.57524902290229
 1 -12.20660318841884 -1.84912731093109 -1.11155136303630
 1 -13.38801480508051 -0.31599541254125 -1.33615097209721
 1 -12.91977244344434 -1.99056029522952 -3.52993599129913
 1 -12.44722489648965 -0.24331305720572 -3.63472104710471
 1 -11.29577292489249 -1.40682362636264 -3.66116523202320
 1 -9.09680057595760 -4.86643949224923 -1.98623620502050
 1 -7.85738943994400 -5.65397550575058 -0.59721394949495
 1 -9.42267443324332 -4.97845463246325 -0.16177443364336
 1 -3.28944907690769 -3.38885046954695 -0.31523817681768
 1 -1.84170526052605 -4.23120149744974  3.48287497449745
 1 -2.98065325272527 -5.69254989738974  3.59666688878888
 1 -1.63747517401740 -6.11269544664466  2.76535323822382
 1  2.74204887598760 -1.77250694059406 -1.56293036933693
 1  2.45858755895590 -0.11267834943494 -2.24484650445044
 1  4.41863108740874 -1.18777678387839  0.18699107530753
 1  4.03433436973697  1.24837593389339 -2.66581992429243
 1  5.07937123552355  2.49474386458646 -1.76467082168217
 1  5.89854517731773  1.03771410161016 -2.91682298159816
 1  6.61043406670667  1.48158438613861  0.24149164686469
 1  6.51436478447845 -0.18089133803380  0.82962396949695
 1  7.35370911301130 -1.13812488418842 -1.32354648334834
 1  7.80261179217922  0.56214309080908 -1.85420556745675
 1  9.12072817001700  0.96270888738874  0.05073903640364
 1  8.71487931073107 -0.73651200660066  0.80366498509851
 1  10.35005671717172  0.18925369166917 -1.67624145474547
 1  9.18271476787679 -2.15136218051805 -1.86215117631763
 1  11.05793887858786 -2.08773528612861 -1.99115530153015
 1  10.26830430403040 -2.54686630923092 -0.46549864056406
 1  11.51298606080608  0.88922332983298  0.39193115651565
 1  11.37618802850285 -0.83187552565257  0.91923939693969
 1  12.73942967866787 -1.53316017741774 -0.84438277317732
 1  12.88913781978198  0.07317679667967 -1.80529889368937
 1  13.88705020822082  0.84735799129913  0.56151281178118
 1  13.89671576187619 -0.85947838513851  0.94615978567857
 1  15.25890828292829  0.27857771817182 -1.55073473297330
 1  15.42629463046305 -2.26549327522752  0.01901430383038
 1  15.16378391019102 -2.04764295789579 -1.78166588698870
 1  16.55075313391339 -1.96425035363536 -1.20877298609861
 1  16.33243845354535  1.53213228592859  0.70006342734273
 1  16.49146084808481 -0.15202159785979  1.24524745644564
 1  18.27122631453145 -0.37549451325132 -0.59881588918892
 1  17.97842792399240  0.94018527702770 -1.09924340824082
 1  18.26491517431743  2.20832273187319  0.88750385128513
 1  18.80125640304030  0.59061267256726  1.69015536713671
 1  20.46078614531453  0.27525396119612 -0.19197144674468
 1  20.53331016431643  2.98346733163316 -0.84883515301530
 1  21.56469258315832  1.85680155805581 -1.30362161616162
 1  19.63500433363336  1.80293169546955 -1.98117854115412
 1  20.94652466776678  1.01709101290129  2.15250469206921
 1  22.18067270777078  1.67663619481948  0.88083234943494
 1  21.05195772837284  2.78943261946195  1.52204813601360

