%nproc=4
%Mem=2GB
# td=(NStates=1) CAM-B3LYP/6-31G(d,p) 

TD

0 1
12 -7.18592026132613  0.62391063176318  0.07031508010801
 6 -4.81444032513251 -1.87616972827283  0.45444107900790
 6 -4.85695500180018  2.93766809410941  1.09834329152915
 6 -9.45330991979198  3.04378677807781 -0.32193352635264
 6 -9.53258428602860 -1.81170134513451 -0.90545866086609
 7 -5.09623240484048  0.50682194269427  0.61540906130613
 6 -4.37573517881788 -0.61883250365037  0.79332123492349
 6 -2.88642960416042 -0.26742201430143  1.18541398259826
 6 -2.98886917611761  1.17117825032503  1.55929873627363
 6 -4.39815790249025  1.54253463386339  1.09284554575458
 6 -2.95743353435344  1.20482696999700  3.16542006810681
 6 -1.87318159905991 -0.53374738483848 -0.08521919611961
 6 -0.54491274527453 -0.34096232763276  0.40716929982998
 6  0.53526290469047 -0.54053748584858 -0.70628228002800
 8  0.31582213191319 -0.90775217901790 -1.83871315161516
 8  1.65876290129013 -0.31334624142414 -0.26079029912991
 7 -7.18481609010901  2.55147655495550  0.35830098689869
 6 -6.13442057305731  3.35867682158216  0.82224020802080
 6 -6.51699968966897  4.77843847424742  0.86805456995700
 6 -7.85093568896890  4.81257114381438  0.43355026202620
 6 -8.18212876607661  3.52200249154915  0.16263660286029
 6 -5.67357313851385  5.85449654095409  1.48542506770677
 6 -8.73487269966997  5.86589165716572  0.28239826172617
 6 -8.36813601140114  7.19766585088509 -0.02167642994299
 7 -9.11137617331733  0.67353383168317 -0.54234593989399
 6 -9.90292195119512  1.66912759535954 -0.47151227542754
 6 -11.29727447034704  1.36033702410241 -1.00787553715372
 6 -11.29632815351535  0.06379025632563 -1.14615388158816
 6 -9.88553843754375 -0.38904739283928 -0.87699700260026
 6 -12.43195143724373  2.36460874177418 -1.24622515341534
 6 -12.39930997669767 -0.75619668186819 -1.60861603880388
 6 -12.42028836083608 -1.20330421562156 -3.10462856825683
 7 -7.17054330643064 -1.36147550915092 -0.26287940664066
 6 -8.20907612991299 -2.22655859535954 -0.61729953585359
 6 -7.76619428692869 -3.60797498039804 -0.49359778877888
 6 -6.36991251325133 -3.58143245874587 -0.16647914001400
 6 -6.16779155735574 -2.18350450495049  0.03088470987099
 6 -8.56147649234923 -4.87332015091509 -0.81131067806781
 6 -5.24051058875888 -4.29933591889189  0.16126462636264
 8 -5.10307166896690 -5.55527818141814  0.23126916171617
 6 -4.11003441344134 -3.23830676477648  0.47553844584458
 6 -3.46806117031703 -3.60427651225123  1.86701788148815
 8 -3.72869652425243 -3.11997523032303  2.99294300960096
 8 -2.64616596449645 -4.67449560206021  1.61862995099510
 6 -1.98529116761676 -5.14232470177018  2.79160049704971
 6  2.81357513411341 -0.57890714841484 -1.10996637153715
 6  4.10524384678468 -0.40749459885989 -0.39006153485349
 6  5.22719632703270  0.35718904340434 -0.88900880108011
 6  5.16329374597460  1.21623615991599 -2.08184527562756
 6  6.42759921752175  0.44132293919392  0.01845515931593
 6  7.59843758265827 -0.11306318821882 -0.77157682638264
 6  8.95904498689869 -0.14167390089009  0.00043744954495
 6  10.21848274127413 -0.54045114341434 -0.77046344074407
 6  9.91299848604861 -1.88201753665367 -1.27810947244724
 6  11.46119723682368 -0.30120101070107  0.00343054175418
 6  12.87426459545954 -0.57480399629963 -0.63629416921692
 6  13.96484217201720 -0.27768453165317  0.22204941794179
 6  15.39143448744874 -0.36150876257626 -0.47540059035904
 6  15.73021712391239 -1.77680046584658 -1.03075035483548
 6  16.46791004500450  0.11320570667067  0.48866805150515
 6  17.83878958325833  0.43202132793279 -0.21243952385239
 6  18.80451585108511  1.20299214601460  0.80023238493849
 6  20.24703238303831  1.33260900550055  0.21497110071007
 6  20.30982121102110  2.03924957295730 -1.09654547594760
 6  21.20133800790079  2.07796216561656  1.16782348394839
 1 -4.24713497199720  3.68340672237224  1.58621314231423
 1 -10.14763851555156  3.82327991189119 -0.37806210881088
 1 -10.20957021882188 -2.55128518321832 -1.26240978847885
 1 -2.69928861956196 -0.79157882158216  2.14671190979098
 1 -2.10951058905891  1.96674516311631  1.17948231473147
 1 -1.96806052935294  0.99756524552455  3.54471468486849
 1 -3.11926671287129  2.05624508110811  3.55546011351135
 1 -3.79054003520352  0.59952432013201  3.38350223472347
 1 -2.18777130403040 -1.56465238563856 -0.43709869586959
 1 -2.18643284548455  0.08715080638064 -0.83861896349635
 1 -0.26942403640364  0.74231215471547  0.76535878777878
 1 -0.15242119581958 -0.94532750815082  1.18828170407041
 1 -5.09323149084909  6.40805598069807  0.82361414361436
 1 -6.41545621592159  6.61304110291029  2.21373606280628
 1 -5.04973820262026  5.44582975437544  2.24781846054605
 1 -9.78292579147915  5.70058299439944  0.48664650915092
 1 -9.16763740414041  7.98308689818982 -0.15872527922792
 1 -7.19755479207921  7.45766633583358 -0.42955742634263
 1 -12.42554796759676  2.77436474177418 -2.23407970637064
 1 -13.37116232973297  1.69395503360336 -0.92555607930793
 1 -12.39501646304631  3.20659374477448 -0.47379887788779
 1 -12.64550707880788 -1.71708410661066 -1.04035424332433
 1 -13.35708171177118 -0.03250706370637 -1.49661701870187
 1 -13.37122758895890 -1.64051529072907 -3.30448344604460
 1 -11.96518669266927 -0.31602032793279 -3.93296087108711
 1 -11.69642298989899 -2.13435637963796 -3.04318343384338
 1 -8.74977587348735 -4.94568741704170 -1.93407098849885
 1 -7.82557625862586 -5.77332744094409 -0.84935916401640
 1 -9.33479564536453 -5.11481826882688 -0.11085934213421
 1 -3.47682781478148 -3.35865745024502 -0.38960561356136
 1 -1.34773586358636 -4.40755913321332  3.10626731373137
 1 -2.59084427182718 -5.67185782818282  3.50727794989499
 1 -1.37859928642864 -6.06962113921392  2.39905660856086
 1  2.64601927302730 -1.55625531543154 -1.37240131643164
 1  2.70232193239324 -0.06108318991899 -2.08581060086009
 1  4.43776300060006 -1.11026903310331  0.34283665986599
 1  4.14971590789079  1.56119721602160 -2.69075241754175
 1  5.48456175457546  2.10572496269627 -1.83751810641064
 1  5.92431775457546  0.84735506570657 -2.72746404570457
 1  6.67649067236724  1.43080930863086  0.07397489518952
 1  6.27864121212121  0.09820657175718  1.08764977207721
 1  7.43775751785178 -1.07883895559556 -1.03438756745675
 1  7.91590312131213  0.57851472797280 -1.66623677057706
 1  9.00192628982898  0.88692130863086  0.61350531303130
 1  8.81334915771577 -0.96618497389739  0.78974359295930
 1  10.39786149764976  0.20924569086909 -1.63395722632263
 1  9.16171266766677 -2.01465851015101 -2.23920888208821
 1  10.95720880558056 -2.31034754735474 -1.77348353435344
 1  9.68137561116112 -2.51854347694770 -0.36625871657166
 1  11.47560232243224  0.84175858335834  0.42110407380738
 1  11.18199860956096 -0.90263260136014  0.86701417441744
 1  12.74681041674167 -1.81380824222422 -0.91256959185919
 1  12.62522142814281 -0.10311083208321 -1.62806116991699
 1  13.88643014621462  0.79328258375838  0.66592325282528
 1  14.03227931823182 -1.01189362666267  0.98616378607861
 1  15.47444983708371  0.50776063646365 -1.28659831933193
 1  15.92027402840284 -2.52367909380938 -0.23283088068807
 1  14.99139667146715 -2.15002319591959 -1.78209592999300
 1  16.72091014961496 -1.77749167776778 -1.27960006880688
 1  16.20173538323832  1.04767384008401  0.88214163516352
 1  16.50874257625763 -0.56152254795480  1.32402533423342
 1  18.21371056295630 -0.49733669746975 -0.83605961356136
 1  17.70081016221622  1.21396265476548 -0.99348283218322
 1  18.32833151595159  2.14054595419542  0.87387248814882
 1  18.91596787418742  0.77984159545955  1.71447779937994
 1  20.76713678037803  0.35121155695570 -0.12892514211421
 1  19.72531936523653  3.18082706760676 -1.04396466596660
 1  21.26985309920992  2.35314119201920 -1.36363761776178
 1  19.91258209140914  1.66897830013001 -1.91796221952195
 1  21.29516953225323  1.58216752055205  2.09094853645365
 1  22.11430607110711  2.13894242544254  0.73431769796980
 1  20.86167870047005  3.00891456765677  1.28640457165717

