%nproc=4
%Mem=2GB
# td=(NStates=1) CAM-B3LYP/6-31G(d,p) 

TD

0 1
12 -7.20566223552355  0.62768100880088  0.20972902150215
 6 -4.84793367446745 -1.90771288258826  0.51829746464646
 6 -4.81462076837684  2.80484481178118  1.29623308050805
 6 -9.37492208100810  3.07584998439844 -0.42538387138714
 6 -9.56578760636063 -1.70532070707071 -0.92261037603760
 7 -5.08082086368637  0.37952921342134  0.74397191759176
 6 -4.32987059235924 -0.69086970737074  0.80623252605261
 6 -2.90748170937094 -0.43068834093409  1.18359380058006
 6 -2.97767805700570  1.03077420992099  1.68650145654565
 6 -4.44794288098810  1.44448482888289  1.27639390059006
 6 -2.83430122112211  1.26500298759876  3.17783130923092
 6 -1.90121440234023 -0.63354736483648  0.06944627042704
 6 -0.50230848484848 -0.50279851125113  0.55229381228123
 6  0.55708508690869 -0.67372080418042 -0.63040469226923
 8  0.20875142484248 -1.00264166796680 -1.70513979427943
 8  1.72919994499450 -0.44379928672867 -0.26119033913391
 7 -7.04976258475848  2.52321372867287  0.29021417821782
 6 -6.03360049104910  3.32667362126213  0.87809579357936
 6 -6.42550053975398  4.70828145854586  0.89110687518752
 6 -7.71519211461146  4.82147203390339  0.27619452645265
 6 -8.11307186038604  3.44110440174017  0.07179751895190
 6 -5.58406418761876  5.79593068436844  1.29241576677668
 6 -8.58434764716472  5.99769483748375  0.16024604650465
 6 -8.21425062286229  7.29430551485148  0.03001873957396
 7 -9.14809984568457  0.67338381668167 -0.42007371267127
 6 -9.85060671967197  1.75365604820482 -0.60411553575358
 6 -11.18286302920292  1.46154714511451 -0.94973972357236
 6 -11.23693221392139  0.13287716501650 -1.15012427862786
 6 -9.90277016071607 -0.37461594969497 -0.79535883878388
 6 -12.29020726282628  2.46335861676168 -1.37233776467647
 6 -12.40031007670767 -0.80590165236524 -1.73535871307131
 6 -12.32580891289129 -1.02118600380038 -3.19395750115012
 7 -7.20198645074507 -1.36410577217722 -0.14288740744074
 6 -8.24709993229323 -2.24805074457446 -0.51089889578958
 6 -7.80059772727273 -3.60847503040304 -0.45396382538254
 6 -6.43550907290729 -3.58455277077708 -0.08549104120412
 6 -6.15132991119112 -2.22242839733973  0.14551617301730
 6 -8.55196554125413 -4.82688550745075 -0.81341088808881
 6 -5.22377891559156 -4.34565055035504  0.17165566546655
 8 -5.11027238903890 -5.57318997259726  0.09333536833683
 6 -4.13298670867087 -3.26247918201820  0.51893278527853
 6 -3.43807817201720 -3.59404548914892  1.86826800650065
 8 -3.82220587518752 -3.15324855765577  2.88727244254425
 8 -2.60504185208521 -4.67373552605260  1.75906399439944
 6 -2.00517315581558 -5.18247871717172  2.93170450745074
 6  2.69309308590859 -0.55617487518752 -1.28688406330633
 6  4.10276359875988 -0.30155400480048 -0.63509603830383
 6  5.11619522692269  0.47952127662766 -1.03484338453845
 6  5.16082349894989  1.23129766606661 -2.26971406250625
 6  6.41873833143314  0.33661246814681 -0.19172585878588
 6  7.52746048494850 -0.11084296619662 -1.06843651235123
 6  8.83117219961996 -0.22783251675168 -0.16964955915592
 6  10.07467836083608 -0.54991208950895 -0.94199059345935
 6  10.08520570677068 -1.98586792169217 -1.26244790629063
 6  11.37360847794780 -0.27323821442144 -0.05159496079608
 6  12.73053022202220 -0.45212172807281 -0.70678121792179
 6  13.94828051585159 -0.06891365456546  0.18635584858486
 6  15.23426877087709 -0.18630124182418 -0.51585463576358
 6  15.69187328952895 -1.58711149694970 -1.00349762956296
 6  16.33840709470947  0.35743012911291  0.52226141084108
 6  17.73230893519352  0.48726685248525 -0.18363664356436
 6  18.81432683218322  1.14498634543454  0.76101846354635
 6  20.23978165796580  1.28788453305331  0.26714631823182
 6  20.26519674857485  2.21381702970297 -0.91126694809481
 6  21.10198807290729  1.90392476187619  1.37892459405941
 1 -4.15366562506251  3.50561894359436  1.80156467746775
 1 -10.05753950565057  3.93413099699970 -0.66113041564156
 1 -10.15794505630563 -2.53072312701270 -1.42247579507951
 1 -2.72013070377038 -1.21003066676668  1.88884612321232
 1 -2.35720535853585  1.75322381098110  1.01176554305431
 1 -1.59051277457746  0.95518100710071  3.41743195659566
 1 -3.16184097029703  2.20540999759976  3.44149871737174
 1 -3.72102308350835  0.87940230793079  3.71744562906291
 1 -1.92613514041404 -1.64383030343034 -0.23347833383338
 1 -2.13117731993199  0.03730582188219 -0.85498059965997
 1 -0.18961605560556  0.54696261976198  1.01494374627463
 1 -0.36257221092109 -1.34215719111911  1.26841971787179
 1 -5.02646481418142  6.40432560766077  0.68618040024002
 1 -6.17978264856486  6.60259005780578  1.90774546374637
 1 -4.79796302510251  5.43642881428143  1.94413809250925
 1 -9.57731523042304  5.81703463956396  0.22778062256226
 1 -9.05933657405740  7.90882947244724 -0.00847025372537
 1 -7.17631266786679  7.60912148134813 -0.21963643424343
 1 -11.94230964376438  3.04613191849185 -2.19068536693669
 1 -13.06944215771577  1.89988562666267 -1.91843536723672
 1 -12.75150211161116  3.38032111751175 -0.79731122912291
 1 -12.33624615271527 -1.78596099429943 -1.06972718061806
 1 -13.31143714731473 -0.43159697269727 -1.52487984498450
 1 -13.27745821202120 -1.61378261746175 -3.59426242394239
 1 -12.11612178617862 -0.10325905180518 -3.62397997299730
 1 -11.32167551515152 -1.47074001800180 -3.60712982848285
 1 -8.90775167106711 -4.73211605990599 -1.73748132953295
 1 -7.73079678067807 -5.66654676287629 -0.86011023912391
 1 -9.28090025582558 -5.22449923692369 -0.07490574677468
 1 -3.38761889388939 -3.46542812731273 -0.23196984998500
 1 -1.65928701870187 -4.48563694099410  3.53358004500450
 1 -2.97030221762176 -5.64622526492649  3.63818104020402
 1 -1.38428985548555 -5.93818799589959  2.53691039393939
 1  2.70895556665667 -1.77033672357236 -1.59425350165016
 1  2.41084278447845  0.20496341474147 -2.10290231003100
 1  4.22228145244524 -0.62134014021402  0.37899027522752
 1  4.13849478577858  1.19232032833283 -2.73953729602960
 1  5.52798609700970  2.22835722592259 -2.05554990959096
 1  5.72404772757276  0.70411074127413 -3.14255555485549
 1  6.58620164346435  1.27357358505851  0.29430692839284
 1  6.35707905590559 -0.41476472537254  0.66862786988699
 1  7.08729247134714 -1.06985805750575 -1.39718384708471
 1  7.74099563056306  0.56426330283028 -1.81371151805181
 1  8.90079617681768  0.71844446094609  0.46883084558456
 1  8.79987781058106 -1.17153550895089  0.61053567216722
 1  10.09584129562956  0.11604637093709 -1.75364919551955
 1  8.98477497389739 -2.01738878317832 -1.80749571077108
 1  10.72248533323332 -2.34122063466347 -1.94003018901890
 1  9.80454792839284 -2.43297492009201 -0.34278636933693
 1  11.14292905510551  0.70771517901790  0.31026298969897
 1  11.44885529522952 -0.88801113921392  0.91722919591959
 1  12.84027976367637 -1.61496835823582 -0.83702203710371
 1  12.93576248224823  0.13042252125213 -1.54384274807481
 1  13.84289579277928  0.95992924842484  0.49652631313131
 1  14.04240033033303 -0.63116555385539  1.10222539223922
 1  15.42527491959196  0.46387624802480 -1.42639229872987
 1  15.53896589758976 -2.37381410731073 -0.23621121872187
 1  15.00485801760176 -1.94479267286729 -1.73210093049305
 1  16.73180123872388 -1.40106403500350 -1.41996410521052
 1  16.03435864556456  1.44451352405241  0.88606202720272
 1  16.32632433443344 -0.12235863156316  1.27867079877988
 1  18.04909410131013 -0.65079204300430 -0.50314632223222
 1  17.57682776397640  1.17850910941094 -1.06789027292729
 1  18.39057774057406  2.15597749734973  1.21146624752475
 1  18.76711298869887  0.50336394769477  1.73635998759876
 1  20.42715278197820  0.15208164396440 -0.35454770437044
 1  20.01588842214221  3.29088807370737 -0.62118238773877
 1  21.23898001190119  2.33209908780878 -1.28501975597560
 1  19.61372220542054  1.99144054635464 -1.69140956425643
 1  21.27817783308331  1.15377468126813  2.39057849944995
 1  22.08361300180018  1.94663319451945  1.14588885508551
 1  20.71571410401040  2.96404008020802  1.54203013421342

