%nproc=4
%Mem=2GB
# td=(NStates=1) CAM-B3LYP/6-31G(d,p) 

TD

0 1
12 -7.10437210651065  0.59530777147715  0.03339138773877
 6 -4.89493837493749 -1.94949706100610  0.44084971987199
 6 -4.73784309060906  2.78617294459446  1.03257671487149
 6 -9.35796038483848  3.13742614201420 -0.28217955095510
 6 -9.51974300190019 -1.72659283428343 -0.76442455745575
 7 -5.10235301690169  0.38728998949895  0.80996851725173
 6 -4.33635124042404 -0.75181580198020  0.87824972777278
 6 -2.86355731693169 -0.39037430953095  1.26192163336334
 6 -2.96890717991799  1.11026215871587  1.63086589298930
 6 -4.35205329202920  1.46134651505151  1.13424968616862
 6 -3.03869166016602  1.26950343764376  3.18639216531653
 6 -1.95180946184618 -0.62296630673067  0.18183750955096
 6 -0.41823007700770 -0.58801703310331  0.56984556745675
 6  0.52649202760276 -0.71962539463946 -0.53980563236324
 8  0.13391394109411 -1.00084148794880 -1.66527580788079
 8  1.76918394339434 -0.45123002980298 -0.14476869696970
 7 -7.01995960446045  2.58677008430843  0.31556671347135
 6 -6.01001813281328  3.33876483038304  0.77059504350435
 6 -6.32353034273427  4.80062069246925  0.79955772027203
 6 -7.69015961136114  4.81077096379638  0.49809671667167
 6 -8.10733128632863  3.39472976427643  0.08785912511251
 6 -5.51314709590959  6.00178126942694  1.23639016421642
 6 -8.56616582898290  5.98333340134013  0.29147916981698
 6 -8.15835503330333  7.24712079637964  0.12493823152315
 7 -9.12998803450345  0.74137061536154 -0.49308101340134
 6 -9.89746140514051  1.89109979257926 -0.56650177437744
 6 -11.21386612951295  1.50406139653965 -1.03396814641464
 6 -11.19238775947595  0.05539941724172 -1.28764803100310
 6 -9.92394227792779 -0.39391787988799 -0.81550085298530
 6 -12.32144038613861  2.44459674057406 -1.36218674957496
 6 -12.26237628332833 -0.74640570277028 -1.81125630283028
 6 -12.00325665766577 -1.04389827502750 -3.27234533993399
 7 -7.22302855495550 -1.35570493209321 -0.19002212091209
 6 -8.31260648294830 -2.24899083858386 -0.44759256515652
 6 -7.87138480598060 -3.54165834873487 -0.39167759675968
 6 -6.53897941994199 -3.61014533003300  0.00571807970797
 6 -6.24353913211321 -2.17266342084208  0.18276989838984
 6 -8.67657800250025 -4.85625844474447 -0.94646419341934
 6 -5.36603314101410 -4.48665465076508  0.22786128602860
 8 -5.17204856665667 -5.62467512111211  0.18278431323132
 6 -4.18277168716872 -3.29988292239224  0.54656554855486
 6 -3.57679204340434 -3.71921800640064  1.88267944764476
 8 -3.82310596519652 -3.20303353615362  2.97165088038804
 8 -2.68953030093009 -4.73082123462346  1.64470255825583
 6 -2.13689632813281 -5.31244171347135  2.85750708770877
 6  2.79755353195320 -0.59685894359436 -1.16566194109411
 6  4.16467979037904 -0.43551740114011 -0.59281180988099
 6  5.22077568496850  0.44663798829883 -1.04291419161916
 6  4.98256567316732  1.29603413971397 -2.21512860396040
 6  6.49527598519852  0.42210101700170 -0.28193487968797
 6  7.63901164006401 -0.33016489838984 -1.02163183188319
 6  8.85785486788679 -0.10479021252125 -0.10808340254025
 6  10.12130302330233 -0.60750784908491 -0.87891428582858
 6  10.06364355055506 -2.13327266216622 -1.33188484998500
 6  11.38338945604560 -0.32115300590059 -0.08706850815081
 6  12.72103927292729 -0.41130764666467 -0.77255779557956
 6  13.88657434523452 -0.13389015221522  0.29907712071207
 6  15.27683302730273 -0.15433804550455 -0.34864791509151
 6  15.48215231743174 -1.51544433023302 -1.01771905170517
 6  16.40734398839884  0.25785017111711  0.53821300600060
 6  17.74088979327933  0.67191531733173 -0.23840212011201
 6  18.76518191769177  1.36846869366937  0.76464882658266
 6  20.22344002380238  1.42969871447145  0.19371897549755
 6  20.29061929082908  2.36332198019802 -1.06095191659166
 6  21.21325920002000  1.82644701410141  1.28328503010301
 1 -3.88891915041504  3.57877625932593  1.29791431243124
 1 -10.15047879957996  3.98592617651765 -0.45053935653565
 1 -10.29620888268827 -2.38918897359736 -1.05337888538854
 1 -2.58316700740074 -0.84779444314431  2.15350258885889
 1 -1.96904654265427  1.69167765636564  1.44123849034904
 1 -2.06413013631363  0.87040252925293  3.58914912831283
 1 -3.33555834203420  2.37110656725673  3.46682124962496
 1 -4.01820280148015  0.68775314301430  3.74434831933193
 1 -2.18878140504050 -1.68548446884688 -0.31014600060006
 1 -2.02506670887089 -0.07848575727573 -0.58915401700170
 1 -0.08302539653965  0.32306022952295  1.18698094999500
 1 -0.25684163786379 -1.45281825722572  1.31525440134013
 1 -4.97578974667467  6.35385056015602  0.20627240944094
 1 -6.18147281758176  6.80024982378238  1.56506119531953
 1 -4.68239146794679  5.56113128452845  1.94790846954695
 1 -9.59109660856086  5.97547048314832  0.50649849434944
 1 -8.89533017341734  7.96663525302530  0.17805839913991
 1 -7.16764180078008  7.51104167336734 -0.05848031863186
 1 -11.64507992079208  3.24387169246925 -2.03460975937594
 1 -13.11013622712271  1.95204084218422 -1.98478200190019
 1 -12.65074203560356  2.90565365076508 -0.26582808080808
 1 -12.30466299439944 -1.81547394559456 -1.43181338923892
 1 -13.33643964756476 -0.15045885888589 -1.90360771777178
 1 -12.66416688288829 -2.03808504770477 -3.81648464616462
 1 -12.38382855685569 -0.11778050395040 -4.01488906390639
 1 -11.18669201680168 -1.31775471947195 -3.57999711521152
 1 -9.13832472837284 -4.52530537883788 -2.02767034843484
 1 -7.90458415941594 -5.75704581278128 -1.03520774887489
 1 -9.42575474127413 -4.95011179817982 -0.16411466766677
 1 -3.53799393139314 -3.55430701520152 -0.30621727472747
 1 -1.48000909090909 -4.53623200050005  3.24372105910591
 1 -3.04817000440044 -5.48859950235023  3.49923714581458
 1 -1.35262668916892 -6.09114329142914  2.64621132403240
 1  2.72110678177818 -1.68270796069607 -1.51793586988699
 1  2.45719741994199  0.19452237063706 -1.95464748454845
 1  4.33609283358336 -0.85990399659966  0.27893026922692
 1  3.89859079537954  1.62035313161316 -2.52183552585259
 1  5.34992829122912  2.31559594979498 -1.99977433203320
 1  5.36770209300930  0.87423775397540 -3.03102440174017
 1  6.75586861016102  1.58699492719272 -0.04709721202120
 1  6.15226857485749 -0.15385863476348  0.73651465856586
 1  7.39003274537454 -1.42080315201520 -1.18152228092809
 1  7.74527605860586  0.17135401190119 -2.08370851775177
 1  8.93461955915591  0.99815243174317 -0.02249828732873
 1  8.61854967776778 -0.58924728012801  0.81009562816282
 1  10.23408512001200  0.10481524782478 -1.88632246284628
 1  9.24836133253325 -2.49956700100010 -1.89951491269127
 1  11.06728981368137 -2.54486099869987 -1.76475266126613
 1  9.85507298089809 -2.72526414901490 -0.36394848554855
 1  11.28480324252425  0.71466587408741  0.49544150755076
 1  11.55178558825883 -1.02178451655166  0.97027450045005
 1  12.77340307600760 -1.36082294369437 -1.24021235613561
 1  12.65444435043504  0.16735621462146 -1.67391575537554
 1  13.82248375157516  1.02207546304630  0.55352201270127
 1  13.67698378867887 -0.87437987528753  1.23108827852785
 1  15.26195858795880  0.67882774317432 -1.25373503300330
 1  15.60207220822082 -2.61467819371937 -0.34014161176118
 1  14.79354688648865 -1.78639683328333 -1.94241196159616
 1  16.45287334593460 -1.55367929652965 -1.73413552235224
 1  15.97760296999700  1.15424449714972  1.05653907490749
 1  16.62826452845285 -0.49247564326433  1.50662359405941
 1  18.25158435033504 -0.23013997779778 -0.51075708330833
 1  17.54859494069407  1.27886914541454 -1.13913739763976
 1  18.45527421022102  2.43776567616762  0.73086818771877
 1  18.63088936633663  0.79838344964496  1.80002635423542
 1  20.44760482718272  0.39304574037404  0.02031978237824
 1  20.13711054435444  3.30041902680268 -0.62772304180418
 1  21.31132724662466  2.14725060296030 -1.71845309930993
 1  19.42646347954795  2.00146154845485 -1.81279170247025
 1  21.21962197749775  1.08364766856686  2.24175361696170
 1  22.22630727122712  1.65870440164016  1.01252551875187
 1  20.83034556715672  2.75194887108711  1.62080801200120

