%nproc=4
%Mem=2GB
# td=(NStates=1) CAM-B3LYP/6-31G(d,p) 

TD

0 1
12 -7.23281495079508  0.62569080978098  0.15640368896890
 6 -4.83603248434843 -1.94179629092909  0.54212984788479
 6 -4.91871117741774  2.86688101540154  1.18307176437644
 6 -9.55786037483748  3.13103550295029 -0.35197653065307
 6 -9.50417144474447 -1.80753092809281 -0.86789490449045
 7 -5.16623940554055  0.43762502300230  0.76111363176318
 6 -4.30629823512351 -0.69093971437144  0.76064796759676
 6 -2.91400236143614 -0.39327459955996  1.16706214741474
 6 -3.11811210041004  1.08007914041404  1.63928673507351
 6 -4.41037912461246  1.48788916931693  1.19344560576058
 6 -3.00688847984798  1.13415990329033  3.18251177727773
 6 -1.91650593149315 -0.48617262736274  0.02945227102710
 6 -0.44397265126513 -0.34533276467647  0.49619820272027
 6  0.54958433683368 -0.58887231933193 -0.61503315511551
 8  0.32696324602460 -0.89781118491849 -1.73348262856286
 8  1.74815184018402 -0.42916782358236 -0.20557477757776
 7 -7.19991760026003  2.50060146744674  0.38043320012001
 6 -6.18784591559156  3.33027398129813  0.64061204520452
 6 -6.51134912461246  4.76421705210521  0.88985675017502
 6 -7.79281987738774  4.86329621632163  0.41452835983598
 6 -8.26288684188419  3.43546383768377  0.22429276847685
 6 -5.53002878407841  5.88685977727773  1.24619114431443
 6 -8.61929114151415  6.00182525052505  0.19046906880688
 6 -8.13540273807381  7.22911899619962  0.04162990069007
 7 -9.19936497219722  0.68663514181418 -0.44968667396740
 6 -9.97700935993599  1.79965064766477 -0.56855197939794
 6 -11.29643438633863  1.49158014841484 -1.08346309590959
 6 -11.23751227192719  0.08742261956196 -1.30927019321932
 6 -9.98685856955696 -0.43542203030303 -0.86943624652465
 6 -12.44162240434043  2.48492077297730 -1.29399993089309
 6 -12.39882992869287 -0.73179424162416 -1.74674985218522
 6 -12.32442877487749 -1.14429831503150 -3.24252235763576
 7 -7.24495074717472 -1.38218758035804 -0.25868898759876
 6 -8.23494871717172 -2.22934887438744 -0.52500030593059
 6 -7.78231589908991 -3.61941612451245 -0.50155858485849
 6 -6.45009053105311 -3.51012532803280 -0.04015650775078
 6 -6.18002278047805 -2.16682283678368  0.04107572897290
 6 -8.59149949464946 -4.81761458035804 -0.82235178217822
 6 -5.21734827252725 -4.31548753405341  0.13990249014901
 8 -5.09365072687269 -5.54351700530053  0.03239927472747
 6 -4.05882929292929 -3.26561949604960  0.62073296529653
 6 -3.51503586778678 -3.70836692129213  1.91501268096810
 8 -3.75199885448545 -3.20605383818382  2.99160287558756
 8 -2.56952830073007 -4.71007916041604  1.69949803780378
 6 -1.91326396489649 -5.15938640794079  2.82799413641364
 6  2.79923369997000 -0.66637589528953 -1.25611098599860
 6  4.12592591499150 -0.51112496189619 -0.53773630233023
 6  5.07240084748475  0.29411273577358 -0.90698059825983
 6  5.11389880648065  1.18861339763976 -2.12179927102710
 6  6.46467292489249  0.37047585448545 -0.11457814401440
 6  7.67827556645665 -0.12043392529253 -0.75401507020702
 6  8.93095217761776 -0.10683041654165  0.00723812961296
 6  10.21023191619162 -0.59061615991599 -0.81302769716972
 6  9.87080426662666 -1.98711804670467 -1.35007666916692
 6  11.43005412251225 -0.39796068666867  0.14291449014901
 6  12.80774794379438 -0.47267378327833 -0.69026956675668
 6  14.03451913971397 -0.16542330553055  0.23346055905591
 6  15.34824016801680 -0.17423003470347 -0.56171922222222
 6  15.62352645484549 -1.52600538633863 -1.05110239003900
 6  16.50078333233323  0.50653503960396  0.25897508220822
 6  17.86729243354335  0.54865299109911 -0.20914919481948
 6  18.91846724622462  1.09802164896490  0.78603096479648
 6  20.33890156995700  1.28721446604660  0.19752935653565
 6  20.35207543644364  2.12459810781078 -1.11985780718072
 6  21.24501237533753  1.84059842924292  1.34622132373237
 1 -4.14774503300330  3.50432881458146  1.55632015301530
 1 -10.39980373207321  3.80776836073607 -0.33422772537254
 1 -10.16590585238524 -2.47535759045905 -1.14026757425743
 1 -2.64768345904590 -1.02025168886889  1.96301353995399
 1 -2.36837647564757  1.69939842844285  1.12051641814181
 1 -2.00959468276828  0.81229671867187  3.57893810721072
 1 -3.33718850505051  2.01058051465147  3.56629119661966
 1 -3.67598858005801  0.34110847854785  3.66403028752875
 1 -1.95949847674767 -1.48228414881488 -0.35616060206021
 1 -2.08635283748375  0.17021911321132 -0.86814191579158
 1 -0.17348444244424  0.50795871937194  0.90148240014001
 1 -0.08217417111711 -0.93923689908991  1.52081495739574
 1 -4.87783995169517  6.03830900600060  0.41029281148115
 1 -6.10736540684068  6.81174097289729  1.58852354155416
 1 -4.91160438923892  5.43654882628263  2.15517919661966
 1 -9.69227672657266  6.02787572367237  0.45044288878888
 1 -9.00074071447145  8.11144973447345  0.04194478777878
 1 -7.20812584918492  7.43393396259626 -0.15739020962096
 1 -12.16078149094909  3.14516182148215 -2.05858215661566
 1 -13.25880109360936  1.75883152125213 -1.96866038973897
 1 -12.83391035243524  3.20217330273027 -0.28881037903790
 1 -12.58289081718172 -1.69380177837784 -1.30443065096510
 1 -13.35179118271827 -0.30264407740774 -1.45248260526053
 1 -13.29826029222922 -1.73050428962896 -3.57178017571757
 1 -12.39287946194620 -0.20354908080808 -3.94935251025103
 1 -11.52290563816382 -1.77187013101310 -3.35427454295430
 1 -8.44136503240324 -4.87768061636164 -1.94464204560456
 1 -8.02606630763076 -5.54494460266027 -0.57715194329433
 1 -9.43857602340234 -4.95461224822482 -0.11127938413841
 1 -3.12411254325433 -3.22494407890789 -0.02991964496450
 1 -1.21185227522752 -4.23792216951695  3.25482216921692
 1 -2.62376756415642 -5.40771141354135  3.67130435253525
 1 -1.30186161266127 -6.11468564566457  2.74138084098410
 1  2.30682535363536 -1.68664835473547 -1.63427750405041
 1  2.45221692189219  0.00484340274027 -2.07366938673867
 1  4.11963118741874 -1.20294830103010  0.36768914511451
 1  4.13665460176018  1.43195429172917 -2.60179352165217
 1  5.64458775717572  2.21897628782878 -2.28385273987399
 1  5.71758708150815  0.52082241244124 -2.81006230553055
 1  6.66570959425943  1.45546177387739  0.06610410811081
 1  6.07571091909191 -0.11192444134413  0.87507851495150
 1  7.56556029812981 -1.18451952365237 -1.05879000770077
 1  7.84714624562456  0.35246212271227 -1.63019316621662
 1  9.12269836703670  0.78843145964596  0.47688165066507
 1  8.77006482928293 -0.58794715011501  0.95675029362936
 1  10.18646035753575  0.35350011631163 -1.64785861646165
 1  9.25180167656766 -2.07496454075408 -2.12460742194219
 1  10.97755083978398 -2.39429594219422 -1.62624881088109
 1  9.29990746434643 -2.69004062666267 -0.57974006470647
 1  11.19411417361736  0.57085149264926  0.92908487188719
 1  11.47232764246425 -1.28032037013701  0.70904837783778
 1  12.94741047674768 -1.41956881828183 -1.16997533243324
 1  12.70464937093709  0.26016549554956 -1.56523488728873
 1  13.83382488568857  0.92932618811881  0.71691835233523
 1  13.86024211451145 -0.93735617291729  1.13154832453245
 1  15.31492388448845  0.59700956135614 -1.34169382888289
 1  15.42657465846585 -2.19060578647865 -0.24893249084908
 1  14.83099063086309 -1.75012320592059 -1.76165388578858
 1  16.57584564316432 -1.88030195879588 -1.52233434223422
 1  16.26858206790679  1.66422549524953  0.52721614261426
 1  16.36573827582759 -0.10465686138614  1.24971790349035
 1  18.24245343724373 -0.50417738153815 -0.40597660526053
 1  17.92577265846585  0.94338559705971 -1.22410589448945
 1  18.53733241604160  2.04954685428543  0.89447454835484
 1  18.83122940034003  0.79978358965897  1.86323267486749
 1  20.86829689638964  0.25057149294929  0.06081383178318
 1  19.59644647794780  3.06443542844284 -1.08544881438144
 1  21.39857597149715  2.18797467536754 -1.63738499249925
 1  19.93730456365637  1.65216661896190 -1.87458788208821
 1  21.16224623992399  1.46258556235624  2.33818325992599
 1  22.18680332083208  1.86183471467147  0.91110537673767
 1  21.00101263386339  2.99591326752675  1.51687761896190

