%nproc=4
%Mem=2GB
# td=(NStates=1) CAM-B3LYP/6-31G(d,p) 

TD

0 1
12 -7.17967963726373  0.56358459915992  0.10157820642064
 6 -4.93823270437044 -1.87132924422442  0.52734836973697
 6 -4.79995930223022  2.82792712001200  1.20997445464546
 6 -9.51145573437344  3.04114651405140 -0.27163849684968
 6 -9.49541056865687 -1.67598777377738 -0.94987310231023
 7 -5.09434221582158  0.42754401490149  0.78650617101710
 6 -4.38376598189819 -0.67939856025603  0.79610151295130
 6 -2.93575453665367 -0.37515278737874  1.26913235443544
 6 -2.99990027922792  1.00432156465647  1.72741554795480
 6 -4.37343543024302  1.53527390779078  1.17153341454145
 6 -3.07487527852785  1.21169765706571  3.23590711681168
 6 -1.91420570147015 -0.55255926602660  0.00562988878888
 6 -0.46477473147315 -0.50560879227923  0.54111269416942
 6  0.45569494789479 -0.47880131223122 -0.57914956675668
 8  0.22002255195520 -0.78497990179018 -1.74049332963296
 8  1.76782380738074 -0.38715362216222 -0.24144836493649
 7 -7.18150575907591  2.53062446974697  0.33815897269727
 6 -6.14185131613161  3.29791074497450  0.88728671267127
 6 -6.52481047074707  4.68615924632463  0.84371213571357
 6 -7.83310390579058  4.87202708940894  0.40669757675768
 6 -8.26982753595360  3.40406069736974  0.11435177437744
 6 -5.63972975417542  5.76541763306331  1.42906943214321
 6 -8.63182239463946  6.01502657065707  0.26749677157716
 6 -8.20653985178518  7.24561064536454  0.03739947764776
 7 -9.11219625532553  0.67612409070907 -0.51071277657766
 6 -9.89797145614561  1.74549523212321 -0.56895201940194
 6 -11.18151289418942  1.45711670207021 -1.12281703130313
 6 -11.16450497119712  0.01941581888189 -1.24490375657566
 6 -9.89210909460946 -0.40720920902090 -0.87038634153415
 6 -12.38629687178718  2.32043432433243 -1.27134766566657
 6 -12.36317636333633 -0.89745080728073 -1.72192736993699
 6 -12.37020335233523 -1.21849573477348 -3.19919802520252
 7 -7.25700195229523 -1.37616697829783 -0.10595371407141
 6 -8.29772499479948 -2.30455639513951 -0.53687149304931
 6 -7.89153682118212 -3.58052223512351 -0.41127955695570
 6 -6.48308383038304 -3.54222853835384 -0.03727621972197
 6 -6.17330210841084 -2.18023417791779  0.12065368676868
 6 -8.68855920062006 -4.88223104200420 -0.79040858785879
 6 -5.29338587628763 -4.29175516081608  0.22107060696070
 8 -5.14153551535153 -5.56092874647465  0.30534656945695
 6 -4.15948935893589 -3.31560449454945  0.53111400340034
 6 -3.52287665186519 -3.60238632323232  1.86074725442544
 8 -3.77692134673467 -3.04045727852785  2.91337505280528
 8 -2.63954530243024 -4.62065021752175  1.57739582758276
 6 -1.91247388588859 -5.02493296259626  2.74152548954895
 6  2.82951672827283 -0.56482574027403 -1.14399977487749
 6  4.10289361176118 -0.32155600500050 -0.56922945164516
 6  5.14294790219022  0.39793311781178 -1.09641954215422
 6  5.09365678227823  1.08672320862086 -2.42127921902190
 6  6.42535899349935  0.58112691959196 -0.42444913111311
 6  7.69275701460146 -0.05093697559756 -1.18969863856386
 6  8.90389947234723 -0.13879361286129 -0.22069466366637
 6  10.16349724272427 -0.61721882018202 -0.92492888728873
 6  10.20938812501250 -2.05675501040104 -1.39284094559456
 6  11.42291340844085 -0.30055094569457 -0.04577437873787
 6  12.72306947594759 -0.40324684058406 -0.77396793659366
 6  13.98989467726773  0.03131636843684  0.12945015801580
 6  15.37193253725373 -0.26265887758776 -0.52568561886189
 6  15.67155125732573 -1.71567435323532 -0.90474775457546
 6  16.45912916691669  0.40886527262726  0.41953113781378
 6  17.88152385668567  0.53532165796580 -0.20149842974297
 6  18.81121652115212  1.17632947974798  0.74297665936594
 6  20.34211189098910  1.24256000060006  0.46138574217422
 6  20.52505273417341  1.98037368536854 -0.87828364976498
 6  21.18629650375038  1.84991936133613  1.59029573117312
 1 -4.14150440894089  3.67584596629663  1.40934545554555
 1 -10.09889364106411  3.80501808570857 -0.44847915051505
 1 -10.43024228602860 -2.42516257095710 -1.20581412891289
 1 -2.68089678037804 -0.88066773047305  1.97965520412041
 1 -2.23531316931693  1.72725121372137  1.23670803730373
 1 -2.16851057435744  0.85303079207921  3.87395760916092
 1 -3.13608839503951  2.30153961056106  3.46948151565157
 1 -4.03363434463446  0.80886525422542  3.94092797729773
 1 -1.94295682258226 -1.48820474087409 -0.50861584758476
 1 -2.23467766996700  0.10907299859986 -0.80139524112411
 1 -0.29873696769677  0.37238516201620  1.16267851975198
 1 -0.18496445014501 -1.42761573697370  1.11899477537754
 1 -5.06355852355235  6.27049222432243  0.73841562376238
 1 -5.98979364966497  6.84231403020302  1.93096778597860
 1 -4.96283951275127  5.38985415681568  2.16940061876188
 1 -9.74754225312531  5.91409434553455  0.42183002750275
 1 -8.88062870327033  7.99183777327733 -0.19755916261626
 1 -7.08134317091709  7.52217278647865  0.02999852925292
 1 -12.04667007980798  3.02966027132713 -2.05329162756276
 1 -13.25614082758276  1.81404704280428 -1.50625414911491
 1 -12.75697265866587  2.88033111851185 -0.28316981498150
 1 -12.16873940204020 -1.86187858605861 -0.99487969586959
 1 -13.45770177377738 -0.65183899689969 -1.55531288828883
 1 -13.16335680188019 -1.73520475967597 -3.39686268396840
 1 -12.40959113311331 -0.10871959785979 -3.72427000200020
 1 -11.41766511411141 -1.90574351835184 -3.47029614511451
 1 -8.88781967786779 -4.77511035933593 -1.84342192359236
 1 -7.97073077407741 -5.75000510871087 -0.58235246334634
 1 -9.55284745054505 -4.94765155215522 -0.08311656785679
 1 -3.46293642564256 -3.30447203170317 -0.15839249224922
 1 -1.52112320232023 -4.17968634593459  3.34391107810781
 1 -2.66136132353235 -5.44297493989399  3.46128335043504
 1 -1.08057948444844 -5.71190536763676  2.32320902380238
 1  2.75732040314031 -1.64595428532853 -1.59786386268627
 1  2.74933663386339 -0.02528961056106 -2.00428244804480
 1  4.34149337363736 -0.91459946614661  0.41796417261726
 1  4.08022895919592  1.45013610991099 -2.66747008930893
 1  5.80812411081108  2.15748013821382 -2.36121047564757
 1  5.32462778557856  0.37667799799980 -3.29995129442944
 1  6.44691771507151  1.66839306700670 -0.40987348964896
 1  6.45030837883788  0.14318106920692  0.59038004510451
 1  7.41697543964397 -0.93855492719272 -1.63617774647465
 1  7.99444097509751  0.69462633913391 -2.09087923482348
 1  9.12688878607861  0.87391000750075  0.30519448194819
 1  8.74373219601960 -0.78969732513251  0.64669928852885
 1  10.17077878937894 -0.00779601330133 -1.96614044464446
 1  9.31733823022302 -2.33368041234123 -1.84026898809881
 1  11.17111019571957 -2.51463797639764 -1.90694688068807
 1  10.10895836943694 -2.73286490909091 -0.46750884158416
 1  11.36041080328033  0.86930133763376  0.34383634703470
 1  11.24291470117012 -0.96876921502150  0.68774624762476
 1  12.98205394109411 -1.32436929832983 -1.12609094399440
 1  12.57726663266327  0.28195767476748 -1.65513387718772
 1  13.89835133833383  0.97001025652565  0.33130979147915
 1  13.76290238053805 -0.39081151845184  1.16049121882188
 1  15.31077346944695  0.24399425982598 -1.55492515201520
 1  15.88376037703770 -2.41725845174517 -0.05028262586259
 1  14.94357188898890 -1.94360255385539 -1.59483720412041
 1  16.75659371797180 -1.82218614721472 -1.11746385518552
 1  16.13561877157716  1.45274434713471  0.46619004000400
 1  16.45202690469047 -0.17275367106711  1.38247117881788
 1  18.12317150905091 -0.66127309110911 -0.39151515911591
 1  17.70298037923792  0.97174843334333 -1.17772125602560
 1  18.50351903470347  2.25760766036604  0.66315141604160
 1  18.37987426482648  0.66709032033203  1.63761011261126
 1  20.77170723742374  0.31337777357736  0.25088283868387
 1  20.42397923122312  2.95789477437744 -0.65233550305030
 1  21.56246236013601  1.71550742864286 -1.30672192619262
 1  19.80631146434643  1.69779118141814 -1.64706512981298
 1  21.18168818411841  1.21665096889689  2.62730217181718
 1  22.30212485298530  1.72395092629263  1.43614788098810
 1  20.71561409400940  2.71353502970297  2.01519745094509

