%nproc=4
%Mem=2GB
# td=(NStates=1) CAM-B3LYP/6-31G(d,p) 

TD

0 1
12 -7.17088875817582  0.45739398009801  0.09155720432043
 6 -4.85482436353635 -1.95425753705371  0.35894152905290
 6 -4.86288559485949  2.79439376667667  1.23639709690969
 6 -9.43624821362136  3.09976237563756 -0.22373370637064
 6 -9.60752177977798 -1.71130130513051 -0.81099921492149
 7 -5.12718550015002  0.42170343084308  0.67946546694669
 6 -4.40972857815782 -0.71529214961496  0.67798970177018
 6 -2.95593655485549 -0.40287555965597  1.18276371757176
 6 -3.10078036723672  1.09258039053905  1.64669747614761
 6 -4.39282736943694  1.46670705110511  1.14741100230023
 6 -2.99923771477148  1.08047453475348  3.17773129922992
 6 -1.93164744564456 -0.61407541764176  0.06558588438844
 6 -0.40476873087309 -0.20015824722472  0.52421100400040
 6  0.49993937233723 -0.45870930303030 -0.57839949174917
 8  0.18427897759776 -1.08710011381138 -1.62114139443944
 8  1.82443946894689 -0.30278518531853 -0.25874009410941
 7 -7.18829643814381  2.54211561886189  0.35683083988399
 6 -6.07753488448845  3.28198915281528  0.67565554955496
 6 -6.40239822952295  4.74631526192619  0.87222498699870
 6 -7.78614921032103  4.83080296699670  0.37610451745175
 6 -8.21422197539754  3.49805009630963  0.12607294649465
 6 -5.53426920812081  5.87831892319232  1.27465399059906
 6 -8.60479969236924  5.97144221222122  0.25715573747375
 6 -8.25745494329433  7.20989707400740 -0.09921418371837
 7 -9.17565260096010  0.67362384068407 -0.39599130443044
 6 -9.86426808580858  1.78344902750275 -0.43685881008101
 6 -11.26803154605461  1.48421941234123 -0.83973872347235
 6 -11.30960948164816  0.09580345764576 -1.11859112531253
 6 -10.00748063176318 -0.32948143624362 -0.76228553145315
 6 -12.31225946804681  2.48813109400940 -1.26945747664766
 6 -12.43637368306831 -0.76281734393439 -1.59170434763476
 6 -12.32528886088609 -1.12913679887989 -3.02890099549955
 7 -7.23230948304830 -1.43573293489349 -0.20776389508951
 6 -8.26543176547655 -2.10619655915592 -0.55484329022902
 6 -7.85752341984198 -3.58165234813481 -0.60421885088509
 6 -6.53682920492049 -3.54713902940294 -0.15771826392639
 6 -6.18219299749975 -2.16403255775578 -0.00874925352535
 6 -8.60721106580658 -4.90409322822282 -0.76285583258326
 6 -5.33154969266927 -4.33319930523052  0.18621712161216
 8 -5.20434179597960 -5.54157681128113  0.16712274707471
 6 -4.16412982298230 -3.27403033713371  0.44602549454946
 6 -3.48535289948995 -3.57654373897390  1.82976415611561
 8 -3.69771342594259 -3.07680091289129  2.91269498479848
 8 -2.60557190509051 -4.53097124962496  1.62765085308531
 6 -1.89883252175218 -5.15680614991499  2.66368770577058
 6  2.71922569916992 -0.64587384508451 -1.22383775867587
 6  4.08154147654766 -0.41727557695770 -0.62064459315932
 6  5.15491909930993  0.24603792829283 -1.10718061826183
 6  5.17494491109111  1.07193172947295 -2.42706979807981
 6  6.44527098469847  0.40132893979398 -0.27493417961796
 6  7.63995173407341 -0.16467834973497 -1.02779244794479
 6  8.89218830123012 -0.08141787528753 -0.14669726392639
 6  10.22967386038604 -0.59139623792379 -0.86118251265127
 6  10.14950213641364 -2.11109044394439 -1.26300796229623
 6  11.39015013211321 -0.33226411701170  0.12517271597160
 6  12.88398556755675 -0.45416193209321 -0.60345088488849
 6  13.99368505630563 -0.26092285548555  0.41984919791979
 6  15.39680502450245 -0.12086469816982 -0.36016906720672
 6  15.70654475667567 -1.45760854665467 -0.99769704950495
 6  16.55726898089809  0.30642502860286  0.60929011371137
 6  17.77637334163417  0.48571669746975 -0.12592087198720
 6  18.87570296979698  1.13704555135514  0.80648301000100
 6  20.20831851165116  1.45152089668967  0.15469507310731
 6  20.33901413031303  2.20557620562056 -1.12522834423442
 6  21.17836571067107  1.87594196359636  1.27673437503750
 1 -4.10613087158716  3.45317369906991  1.38947346834683
 1 -10.32138589028903  3.80468805270527 -0.17318162076208
 1 -10.35885514731473 -2.37617767246725 -1.23563711121112
 1 -2.62076076677668 -1.14483414711471  1.94911214981498
 1 -2.33977361536154  1.52962145074507  1.33554792129213
 1 -2.12448617191719  0.76535202420242  3.48256847024703
 1 -3.07133191939194  2.14605406200620  3.48955352285229
 1 -4.06251723292329  0.34329869756976  3.54955884038404
 1 -1.99435196209621 -1.49666558695870 -0.19906489248925
 1 -2.15603980618062  0.01159325062506 -0.75371047264726
 1 -0.55958305230523  0.88911683518352  0.88192044394439
 1  0.06644069036904 -0.77183015841584  1.24270714661466
 1 -4.80537270497050  6.16428160326033  0.58506028822882
 1 -6.39960463076308  6.54838463726372  1.62538722792279
 1 -4.86171940074007  5.89919509090909  2.11867554625463
 1 -9.75778327722772  5.87436037213721  0.52591043554355
 1 -8.84647528792879  8.13565215471547 -0.15288469516952
 1 -7.34183922052205  7.54348491769177 -0.62128659925993
 1 -11.88654406720672  2.87422472777278 -2.27945424382438
 1 -13.08179339283928  1.76543218131813 -1.79630315401540
 1 -12.81476843824382  3.23237632303230 -0.49847134513451
 1 -12.39116164426443 -1.67203960216022 -1.08903911181118
 1 -13.34747075067507 -0.10757457045705 -1.56682403940394
 1 -13.03881434763476 -1.80919215841584 -3.32052505020502
 1 -12.49108928292829 -0.19451817771777 -3.57170474547455
 1 -11.30156350395039 -1.72220516451645 -3.35895501100110
 1 -8.93996489238924 -4.88140098839884 -1.95030261166117
 1 -8.03482718371837 -5.95184529272927 -0.44641886998700
 1 -9.49140130593059 -4.85767255425543 -0.10580883708371
 1 -3.31214134613461 -3.35260684518452 -0.23761041404140
 1 -0.98979006900690 -4.34598297559756  3.13720040704070
 1 -2.71121630903090 -5.34936557895790  3.49529675177518
 1 -1.17563899039904 -5.95357953505351  2.33048975187519
 1  2.67918258935894 -1.71901159105911 -1.52759683598360
 1  2.55086678687869  0.09191210961096 -2.08557057685769
 1  4.37836706100610 -0.88114612081208  0.35760813701370
 1  4.27691862816282  1.37651874817482 -2.87384072637264
 1  5.77874117251725  2.13504789498950 -2.16610096469647
 1  5.69483480628063  0.36715704590459 -3.07140844014401
 1  6.54889791309131  1.42738896659666  0.01182868056806
 1  6.18971231923192 -0.02653590249025  0.62104311141114
 1  7.49016275837584 -1.09938100980098 -1.34305843454345
 1  7.85641717271727  0.50625750225023 -1.80093023992399
 1  9.03518961616161  0.85110772727273  0.18364232673267
 1  8.59965778857886 -0.91586994239424  0.67988260686069
 1  10.21999371087109  0.06069083538354 -1.82057588818882
 1  9.38287478387839 -2.55480252455246 -2.00975593679368
 1  11.14569765446545 -2.47397390999100 -1.52233841984198
 1  10.18210568416842 -2.73329495209521 -0.40390248094809
 1  11.26579134133413  0.64456886438644  0.75865782918292
 1  11.35222563226323 -1.09256159425943  0.83933140614061
 1  12.99033476917692 -1.35659252065207 -1.07758609350935
 1  12.92950185618562  0.32277175617562 -1.38447681148115
 1  13.80860236343634  0.79691294679468  0.67248390889089
 1  14.00984707500750 -1.07150958825883  1.33513868356836
 1  15.34948734083408  0.60089995039504 -1.12675233473347
 1  15.67726972797280 -2.26321304720472 -0.19656725432543
 1  15.01766929872987 -1.73135132873287 -1.89505722612261
 1  16.97083514211421 -1.31405533413341 -1.16932904170417
 1  16.24713992369237  1.20953002570257  1.30299372037204
 1  16.67812951495150 -0.43159955565557  1.38538146984699
 1  18.21502069396940 -0.42072903670367 -0.71989799739974
 1  17.54613469466947  1.19902116061606 -1.03320680458046
 1  18.52205088788879  1.97665956555656  1.61467656855686
 1  19.04399067646765  0.56253986528653  1.81920827242724
 1  20.52440250695069  0.35152158795880 -0.12463471307131
 1  19.71250808410841  3.07651663656366 -0.97725799529953
 1  21.28983509740974  2.15896177407741 -1.42715396939694
 1  19.67310814401440  1.73925532783278 -1.88695911921192
 1  21.06269628492849  1.54350365416542  2.19935937753775
 1  22.21368600910091  1.74265279647965  0.79857412361236
 1  21.22179471207121  3.02613628982898  1.81193712491249

