%nproc=4
%Mem=2GB
# td=(NStates=1) CAM-B3LYP/6-31G(d,p) 

TD

0 1
12 -7.15864753405341  0.60665890659066  0.21481953055306
 6 -4.83655253635364 -1.91460357165717  0.51277691259126
 6 -4.89081838813881  2.89983431073107  1.12261571877188
 6 -9.47553214201420  2.96656905630563 -0.25124645764576
 6 -9.57515854345434 -1.75512568756876 -0.69728784378438
 7 -5.05879866146615  0.45034629512951  0.69276679707971
 6 -4.35994359965997 -0.61107172757276  0.89920182298230
 6 -2.91917287848785 -0.27907317941794  1.29604504570457
 6 -2.98583887308731  1.12047317981798  1.68492129852985
 6 -4.43308139483948  1.58759914031403  1.16130239143914
 6 -2.91620941194119  1.38329481678168  3.16000952705271
 6 -1.94873915481548 -0.64545855595560  0.18100742654265
 6 -0.47542579657966 -0.39058729012901  0.41032961586159
 6  0.48837821622162 -0.63337676977698 -0.65570722252225
 8  0.21746229592959 -1.00977238103810 -1.74531381168117
 8  1.76192321732173 -0.28373328012801 -0.31189540964096
 7 -7.22837044554455  2.57743915121512  0.35915107190719
 6 -6.16462359335934  3.37576853075308  0.77877586158616
 6 -6.55357334703470  4.79179981038104  0.84975273977398
 6 -7.84317491289129  4.81847173387339  0.42122902990299
 6 -8.22416296949695  3.44946523782378  0.04635497469747
 6 -5.66885266646665  5.91933302460246  1.20886741194119
 6 -8.79885909830983  5.93448851685169  0.21258128002800
 6 -8.50117931573157  7.28845492979298  0.21341707940794
 7 -9.15370040574057  0.55014149244925 -0.36784849014902
 6 -9.85508716771677  1.66368705130513 -0.49723484768477
 6 -11.20883562646265  1.35735672607261 -1.10976572617262
 6 -11.29133765446545  0.02306618391839 -1.09194846104610
 6 -9.96866675037504 -0.48381686978698 -0.65673497639764
 6 -12.19870811291129  2.42378465936594 -1.46597712861286
 6 -12.42718276397640 -0.85685674787479 -1.54578975617562
 6 -12.21279761176118 -1.26559044424442 -3.01514962036204
 7 -7.23519977207721 -1.40950031163116 -0.09938305700570
 6 -8.26532175447545 -2.31789772927293 -0.39343714961496
 6 -7.74521218871887 -3.61106528942894 -0.47631606060606
 6 -6.44487000900090 -3.55858017351735 -0.03747623972397
 6 -6.21159593779378 -2.17820397489749  0.12679430083008
 6 -8.51173151785178 -4.74481730063006 -1.02635218221822
 6 -5.18647518521852 -4.23620960626063  0.12011051095110
 8 -5.01174253605360 -5.48523117671767 -0.07390135533553
 6 -4.11563497349735 -3.25675860996100  0.46495738773877
 6 -3.47584194839484 -3.60467655225523  1.76802798249825
 8 -3.76390004460446 -3.02709594239424  2.85069878517852
 8 -2.51179252715272 -4.58800695319532  1.59905799379938
 6 -1.90251288978898 -5.15573604290429  2.75264660166017
 6  2.82798657525753 -0.55331458915892 -1.30804617951795
 6  4.22066538893889 -0.28703255265527 -0.59307183588359
 6  5.16449005640564  0.44634795929593 -1.00122002220222
 6  5.07809522612261  1.35201973827383 -2.37751484258426
 6  6.44385084268427  0.48466727362736 -0.30921760796080
 6  7.69405714461446 -0.10211209310931 -0.97687735643564
 6  8.94070315271527 -0.10951068456846 -0.15779837403740
 6  10.22852374537454 -0.63168026632663 -0.90218661306131
 6  10.02052923912391 -2.02041137603760 -1.36677833933393
 6  11.43443456055606 -0.37944883548355 -0.00394019531953
 6  12.78052522152215 -0.51317783368337 -0.81478201800180
 6  14.02460814861486 -0.15936269946995  0.16294350735074
 6  15.40774611861186 -0.35906851855186 -0.36497954825483
 6  15.68360246244625 -1.81324411021102 -0.75598287808781
 6  16.38822207620762  0.18646303240324  0.51251043574357
 6  17.77682338663866  0.48033615941594 -0.08866714661466
 6  18.80635603510351  1.15526737353735  0.85826818851885
 6  20.16179385918592  1.27856360096010  0.27995759935994
 6  20.26072630153015  2.08562421042104 -0.95656147754775
 6  21.06165403950395  1.84187855725573  1.35001170277028
 1 -4.08918917741774  3.66462484418442  1.17978249924992
 1 -10.34597834953495  3.70301788568857 -0.54060836343634
 1 -10.42435169696970 -2.46826688138814 -0.90155370287029
 1 -2.50719941064106 -0.95472513621362  1.85752299089909
 1 -2.22664230223022  1.55966445504550  1.18455282178218
 1 -1.90846456975698  1.15077056605661  3.45453566696670
 1 -3.07911269746975  2.28844830143014  3.57339190669067
 1 -3.64239522072207  0.84884925262526  3.77449133363336
 1 -2.05480800770077 -1.63401932233223 -0.07302228822882
 1 -2.24492869506951  0.00222231353135 -0.60989609120912
 1 -0.26728382238224  0.74285220872087  0.73632588448845
 1 -0.22477843154315 -1.05322829822982  1.27239011491149
 1 -4.98441060876088  6.04403957905791  0.30219200140014
 1 -6.26016068636864  6.77487728652865  1.50554524372437
 1 -4.79038226702670  5.55725089648965  2.06516019471947
 1 -9.84023152205221  5.61620455655565  0.19171701620162
 1 -9.14779541994199  8.30861945144514  0.10851144444444
 1 -7.57211224782478  7.53613418261826  0.02728825822582
 1 -11.81850726352635  3.14423172847285 -2.16451274967497
 1 -13.16626183968397  1.94186982508251 -1.79611313501350
 1 -12.52247920932093  2.89468255365537 -0.51986348434843
 1 -12.39735226332633 -1.70994339253925 -0.90361056895690
 1 -13.53329933353335 -0.35553936693669 -1.38090544754475
 1 -12.91718218441844 -1.95753699289929 -3.56937993569357
 1 -12.20341051505151 -0.39454818071807 -3.75581315631563
 1 -11.20322366996700 -1.82668561256126 -3.08832794829483
 1 -8.78904980088009 -4.85720856915692 -1.98053563496350
 1 -7.90783448444845 -5.58708881708171 -0.66111033913391
 1 -9.53718588438844 -4.92683947094709 -0.64116237243724
 1 -3.46855698769877 -3.22251383588359 -0.40032668566857
 1 -1.81658274827483 -4.19293767106711  3.52030871787179
 1 -2.66275146254625 -5.81920256265627  3.26477369946995
 1 -1.08406983348335 -5.73696787388739  2.38161486438644
 1  2.89962463356336 -1.58227791769177 -1.54295837213721
 1  2.54520622082208  0.03917683608361 -2.16267828762876
 1  4.27405662996300 -0.68070607680768  0.35513788998900
 1  4.20302123842384  1.43420451675168 -2.74488783108311
 1  5.52450574897490  2.29576396659666 -2.21240559515952
 1  5.81579690249025  0.92844317451745 -3.19487078637864
 1  6.49076209950995  1.53634986268627 -0.06993949624962
 1  6.23608695669567 -0.10667391629163  0.69312031913191
 1  7.19293303540354 -1.14261533323332 -1.21238536723672
 1  7.71247277827783  0.42314919141914 -2.05842598949895
 1  9.11529762696270  0.88419103560356  0.10027398989899
 1  8.77931575437544 -0.43175153055306  0.96997161576158
 1  10.41419313081308  0.05888065436544 -1.61407523812381
 1  9.06140263666367 -2.10473751805181 -1.76395135633563
 1  10.79290237493749 -2.35288180078008 -2.13744993099310
 1  10.30490796439644 -2.96502812541254 -0.61011310201020
 1  11.33302806500650  0.63716812431243  0.40995295869587
 1  11.47201761146115 -1.08531086918692  0.67550502350235
 1  12.90967670337034 -1.44050091149115 -1.29641797669767
 1  12.99113801980198  0.21844132313231 -1.80801916571657
 1  13.93230473367337  0.79381263676368  0.63581024152415
 1  13.78227431773177 -0.81134357165717  1.07582275197520
 1  15.40558295039504  0.33842370277028 -1.32727238673867
 1  15.65450745174518 -2.58315504140414  0.11345374777478
 1  14.89583711551155 -2.02301049464947 -1.46912463286329
 1  16.51307936653665 -1.95478940754075 -1.33993610241024
 1  16.04873008270827  1.15789486218622  0.68455187618762
 1  16.47164886688669 -0.20528692439244  1.55773870557056
 1  18.17523671557156 -0.48085504930493 -0.52454846244624
 1  17.65037511871187  1.33550480898090 -1.02853633753375
 1  18.44846352915291  2.01456335593559  0.94812991389139
 1  18.77917419481948  0.56055966726673  1.84802115371537
 1  20.73398346504650  0.14347078287829  0.04612236263626
 1  19.94437127042704  3.03996298119812 -0.97287755725573
 1  21.28942505640564  2.11263714161416 -1.38799005300530
 1  19.73531436463646  1.64117551985199 -1.86667709100910
 1  20.97595761106111  1.57322662646265  2.56064550615061
 1  22.22951759225923  2.14086261746175  1.05438970517052
 1  20.77590012261226  2.92588626482648  1.48387431863186

