%nproc=4
%Mem=2GB
# td=(NStates=1) CAM-B3LYP/6-31G(d,p) 

TD

0 1
12 -7.22969463876388  0.60872911361136  0.05047309590959
 6 -4.80052893399340 -1.96584869616962  0.51258689358936
 6 -4.92738204450445  2.90441476877688  1.24260771797180
 6 -9.51997658645864  3.06179857925793 -0.30351168416842
 6 -9.47656868446845 -1.70192036703670 -0.96681479647965
 7 -5.17110989258926  0.48015927642764  0.89450697109711
 6 -4.36325393069307 -0.72028264866487  0.87559946274627
 6 -2.91358231943194 -0.31137640974097  1.32150759195920
 6 -3.03021331053105  1.16211734423442  1.63622642904290
 6 -4.41848993569357  1.61108148854885  1.11897815901590
 6 -2.99255704670467  1.50557704500450  3.18082160826083
 6 -1.97256153705371 -0.59341335143514  0.14588391419142
 6 -0.49692794679468 -0.43614184558456  0.53639222212221
 6  0.44637401580158 -0.71237466956696 -0.55585723752375
 8  0.24671522122212 -0.95874727852785 -1.73324260456046
 8  1.74542156715672 -0.48861376817682 -0.18670289038904
 7 -7.12060966946695  2.61828323562356  0.41333649044904
 6 -6.17861499249925  3.32051300520052  0.75793377737774
 6 -6.46636462616262  4.74628525892589  0.92625038953895
 6 -7.83653424882488  4.80341022772277  0.54445135213521
 6 -8.25959651285128  3.37752804410441  0.12705304450445
 6 -5.66669245044504  5.90328141944194  1.43255978117812
 6 -8.69704891729173  5.91351641964196  0.22719274117412
 6 -8.27777697549755  7.20188627292729 -0.05916017831783
 7 -9.11409644534453  0.65568204650465 -0.54874657995800
 6 -9.94284594359436  1.74195487808781 -0.59031415561556
 6 -11.23732847574758  1.40283127352735 -1.17377212681268
 6 -11.26506502720272  0.08144202150215 -1.20686995319532
 6 -9.98873875757576 -0.43263175127513 -0.84373367626763
 6 -12.26688493059306  2.50978325922592 -1.35594612551255
 6 -12.49953999969997 -0.68609967216722 -1.63078825602560
 6 -12.32104843684368 -1.05491937713771 -3.15269337473747
 7 -7.26591284338434 -1.38727808940894 -0.16296941564156
 6 -8.31233645594559 -2.25390132963296 -0.52866067196720
 6 -7.80535820332033 -3.59410359325933 -0.56005443444344
 6 -6.50952647464747 -3.56636095159516 -0.15308780088009
 6 -6.17522230043004 -2.19422557705771  0.09702132353235
 6 -8.64750509520952 -4.80587340624062 -0.87953750075008
 6 -5.26485302300230 -4.35637162246225  0.20112861276128
 8 -5.12192355415542 -5.52375502910291  0.21935797059706
 6 -4.07322073207321 -3.30776371047105  0.46476736873687
 6 -3.41804616881688 -3.63890997559756  1.74747592729273
 8 -3.62078573317332 -3.18454168696870  2.91164487978798
 8 -2.53057440534053 -4.75947409990999  1.57339542754275
 6 -1.93611625012501 -5.19342981228123  2.78953029002900
 6  2.84913869046905 -0.59763902160216 -1.16372174707471
 6  4.03353667606761 -0.36253010241024 -0.46744927362736
 6  5.16724033143314  0.29388271277128 -0.89801970217022
 6  5.22258967556756  1.08253278957896 -2.21727881898190
 6  6.51338779637964  0.28358716561656 -0.13529021522152
 6  7.61354909380938 -0.10583246514651 -0.99494916361636
 6  8.83000208260826 -0.26909664316432 -0.11609420362036
 6  10.25042593559356 -0.58113521182118 -0.83772016641664
 6  10.20819800600060 -2.07898723362336 -1.28528018951895
 6  11.48655977307731 -0.34559545014501 -0.02034183548355
 6  12.78679584858486 -0.53346986288629 -0.65017555735574
 6  13.94512019981998 -0.25025178837884  0.19804701770177
 6  15.31436678067807 -0.14643725542554 -0.47891094139414
 6  15.64516861906191 -1.51967475327533 -1.02335961576158
 6  16.43267652165216  0.30817520362036  0.36607579227923
 6  17.90171587588759  0.45183330913091 -0.21065934583458
 6  18.81610701020102  1.23402524932493  0.74554691639164
 6  20.30694837463746  1.38526427102710  0.27026663026303
 6  20.46198642754275  2.03603925192519 -1.11180700210021
 6  21.07587546164617  2.15490986038604  1.36558325992599
 1 -4.13561381988199  3.62850123182318  1.26553107410741
 1 -10.13980773247325  4.00005758965897 -0.22456675927593
 1 -10.16690595239524 -2.50872092679268 -1.17101064856486
 1 -2.66245493619362 -0.95478514221422  2.10462770137014
 1 -2.28596823482348  1.74588307690769  0.93979834633463
 1 -1.96172989628963  1.33304879387939  3.62613282668267
 1 -3.22761754795480  2.60323978057806  3.50893546104610
 1 -3.76286726792679  0.93576794449445  3.67084096859686
 1 -2.12752527942794 -1.50057597799780 -0.21846683268327
 1 -2.03514771697170  0.11524361566157 -0.78031313291329
 1 -0.18922601660166  0.49259718321832  0.83871612351235
 1 -0.24270022372237 -1.31877485288529  1.33178605450545
 1 -4.90933310101010  6.16820199529953  0.74580636283628
 1 -6.23842851315132  6.76432623142314  1.49166385558556
 1 -4.88531175997600  5.55637080848085  2.12382606130613
 1 -9.80391789068907  5.76920985708571  0.48476632113211
 1 -8.90604124452445  8.03555214471447 -0.40411981868187
 1 -7.25831086768677  7.44827539673967  0.04305983538354
 1 -11.96200161296130  3.02444975027503 -2.06419271767177
 1 -13.32324753825382  2.08517415551555 -1.61816534023402
 1 -12.44308126952695  3.08044112951295 -0.47590908890889
 1 -12.48538106620662 -1.68689108730873 -1.31150135803580
 1 -13.38506451005101 -0.04980879387939 -1.67126448344834
 1 -13.25074554075407 -1.65146638583858 -3.25901889958996
 1 -12.49704987898790 -0.18386711261126 -3.75916349134914
 1 -11.46587993559356 -1.67367031103110 -3.58878799429943
 1 -8.91163205910591 -4.54881773007301 -2.02102968436844
 1 -8.07551125212521 -5.55357546574658 -0.72275650375038
 1 -9.46997916371637 -4.85423221022102 -0.35737399359936
 1 -3.36711684368437 -3.39752133663366 -0.36055270827083
 1 -1.11782287228723 -4.52852122942294  3.11392807980798
 1 -2.70662584998500 -5.06405704810481  3.72968019011901
 1 -1.46795822232223 -6.25618979607961  2.49661636453645
 1  2.95540021112111 -1.49930962086209 -1.55043912021202
 1  2.48446014621462  0.06847976637664 -1.94027604740474
 1  4.15728495279528 -0.82991099729973  0.62325470167017
 1  4.21821275757576  1.11741283758376 -2.65003834613461
 1  5.38262156055606  2.18724311451145 -2.15461981658166
 1  5.91903722652265  0.42480281048105 -2.89320061936194
 1  6.77592061536154  1.30625685338534  0.27650514821482
 1  6.45284863286329 -0.32903615251525  0.68842985008501
 1  7.43355709780978 -1.10982205390539 -1.42427655635564
 1  7.94531606260626  0.58946582308231 -1.84218436533653
 1  9.07921401860186  0.75288790529053  0.51497546004600
 1  8.56863468626863 -1.29849820522052  0.49307392599260
 1  10.28986069756976 -0.05503073677368 -1.91057488808881
 1  9.00834733113311 -2.32986003030303 -1.57258221942194
 1  10.85588867356736 -2.18051456405641 -2.25288147414742
 1  10.34064153775378 -2.72475409800980 -0.30148223892389
 1  11.54248901110111  0.62479688718872  0.43335529892989
 1  11.43666407610761 -1.19088142624262  0.80808828182818
 1  12.89981571727173 -1.49373623502350 -1.01492982788279
 1  12.92160106610661  0.23754323332333 -1.58606697049705
 1  13.80126162936294  0.66750000550055  0.67075373587359
 1  13.95895198549855 -1.16260869816982  0.88681385108511
 1  15.24950734283428  0.60166002640264 -1.36586624612461
 1  15.77326932793279 -2.19404613051305 -0.21062866046605
 1  14.89547707950795 -1.74841303490349 -1.73304102450245
 1  16.59940799939994 -1.48800272887289 -1.40302241104110
 1  16.22249745944594  1.49416848954896  0.69285270627063
 1  16.52730443244324 -0.01118751445145  1.42180511221122
 1  18.34233342524253 -0.45605256905691 -0.36069207680768
 1  17.97342742394240  1.05615687418742 -1.36403988788879
 1  18.53296197899790  2.27801970157016  0.77482258315832
 1  18.72167844524452  0.90580419171917  1.82194854645465
 1  20.82968303500350  0.23610004580458  0.31542929332933
 1  20.17492432573258  2.98328731363136 -1.00827109660966
 1  21.39697581148115  1.97722360026003 -1.47144839883988
 1  19.89780061326132  1.66755815811581 -2.07299772307231
 1  20.95158517381738  1.65503480728073  2.37470691229123
 1  22.06299093959396  2.32353088428843  1.14265853205321
 1  20.57982051465147  3.13553722992299  1.51787771897190

