%nproc=4
%Mem=2GB
# td=(NStates=1) CAM-B3LYP/6-31G(d,p) 

TD

0 1
12 -7.23162483178318  0.61396963766377  0.16106415501550
 6 -4.86987586868687 -1.93176528782878  0.56502213711371
 6 -4.84177348364836  2.83435776307631  1.15073853105311
 6 -9.50859544834483  3.16695909530953 -0.28911024402440
 6 -9.56755778337834 -1.78896907190719 -0.93175129012901
 7 -5.21760454205421  0.42430369086909  0.83800132053205
 6 -4.38215582088209 -0.75805642604260  0.73101500430043
 6 -2.99225018621862 -0.36848212031203  1.24025946714671
 6 -3.01626191539154  1.15443657615762  1.68175098149815
 6 -4.45886397309731  1.50030041044104  1.20929719091909
 6 -3.00646843784378  1.33160964826483  3.22306583268327
 6 -2.01074535543554 -0.53525753585359  0.05398472427243
 6 -0.55009326332633 -0.48465669706971  0.56981556445645
 6  0.50672005040504 -0.58919235133513 -0.55995764756476
 8  0.22384293399340 -1.06440784458446 -1.67122640294029
 8  1.73849087408741 -0.35943084988499 -0.17144136423642
 7 -7.24467207570757  2.51219262656266  0.46604176097610
 6 -6.24830196119612  3.33838479237924  0.88609659365937
 6 -6.54391238093809  4.82235286568657  0.91998976347635
 6 -7.87231782718272  4.77695758245825  0.49769667666767
 6 -8.29017957115711  3.48312860416042  0.20820115931593
 6 -5.73366914811481  5.88167925922592  1.38697522272227
 6 -8.67794700710071  5.92640770877088  0.30758077997800
 6 -8.39602880068007  7.29349543384338  0.14052979067907
 7 -9.21644668036804  0.63043952225223 -0.44217592289229
 6 -9.95699735873587  1.76015669826983 -0.65523064726473
 6 -11.25217996089609  1.46115710611061 -1.11041579117912
 6 -11.28254677537754  0.06789066636664 -1.22341160736074
 6 -10.01137102080208 -0.47860634873487 -0.84596389928993
 6 -12.50412865496550  2.43797607850785 -1.23842437333733
 6 -12.45419546524652 -0.68173923612361 -1.76363154035404
 6 -12.38940527252725 -1.00784466966697 -3.24338244364436
 7 -7.21038729082908 -1.35709507110711 -0.21470458915892
 6 -8.32177740004000 -2.23994993449345 -0.57637544344434
 6 -7.78185585308531 -3.63535771867187 -0.58347677667767
 6 -6.50947646964697 -3.48927324282428 -0.12614510661066
 6 -6.19205398359836 -2.19776593109311  0.04193581498150
 6 -8.56574691939194 -4.89490230913091 -0.89070861786179
 6 -5.31557809550955 -4.30033601890189  0.21898039793979
 8 -5.06838820062006 -5.52139479307931  0.21001703650365
 6 -4.11340475047505 -3.34740767486749  0.51115200720072
 6 -3.49603396759676 -3.60311639623962  1.81380255995600
 8 -3.71051470607061 -3.13643687648765  2.84505822112211
 8 -2.60470181808181 -4.59455760826083  1.72935102310231
 6 -2.10050268876888 -4.99466993629363  3.05340667766777
 6  2.78212198879888 -0.65296455415542 -1.21082645754575
 6  4.18801212361236 -0.44904875427543 -0.65008753745375
 6  5.17840144754475  0.25254857935794 -1.13926382658266
 6  5.15887330393039  1.00616515281528 -2.40148723982398
 6  6.44821127872787  0.36702550945095 -0.42043873007301
 6  7.72049978887889 -0.33760564246425 -1.14043371207121
 6  9.00810989338934 -0.16117585108511 -0.35918851305131
 6  10.32830372337234 -0.60391749004900 -1.05768216261626
 6  10.12545973217322 -2.16526586148615 -1.34018568006801
 6  11.56778789588959 -0.42090298089809 -0.11311111241124
 6  12.84580174917492 -0.44792130803080 -0.83555409520952
 6  13.98327401520152 -0.10354711791179  0.05028224122412
 6  15.51456680068007 -0.27960057175718 -0.50415346564656
 6  15.85128923112311 -1.74426721252125 -0.66154343414341
 6  16.58791204520452  0.40626501260126  0.44167335203520
 6  17.95639134343434  0.60849897569757 -0.05557383728373
 6  18.92608800830083  1.36245809260926  0.76044840654065
 6  20.38273595339534  1.33409915451545  0.33270287388739
 6  20.76283651255125  2.16950259825983 -0.90950677207721
 6  21.16653452755276  1.97672204160416  1.52180888248825
 1 -3.90665092359236  3.51285966766677  1.20265478647865
 1 -10.23542729442944  3.87637522142214 -0.46724102670267
 1 -10.34229349114911 -2.40985103980398 -1.33931747924792
 1 -2.77054574527453 -1.03120278397840  2.05179241784178
 1 -2.33084272227223  1.74935342394239  1.18126249274928
 1 -1.96059978327833  0.92996848584858  3.43011322472247
 1 -3.27532231843184  2.23022247884788  3.65879044654465
 1 -3.63223420462046  0.76803117081708  3.65126901140114
 1 -1.85343787068707 -1.61721764216422 -0.40144513051305
 1 -2.05348955115511 -0.05489339803980 -0.87916301790179
 1 -0.32286938093809  0.60908883238324  1.00014226612661
 1 -0.19357531123112 -1.14843781918192  1.52492536843684
 1 -5.01586375407541  6.10392556765677  0.51791357355736
 1 -6.36788145844584  6.84417421622162  1.78299298849885
 1 -5.13151638043804  5.40251542294229  2.28945262396240
 1 -9.90463796269627  5.98977191329133  0.18124596909691
 1 -9.26185682608261  8.00876946644664  0.37657825112511
 1 -7.37006204280428  7.74582515171517  0.14619014841484
 1 -12.33889930273027  2.82378968426843 -2.34503080148015
 1 -13.43994920842084  1.82965860396040 -1.15646917061706
 1 -12.58335529692969  3.12926601200120 -0.52429392739274
 1 -12.49877240534053 -1.73513591179118 -1.21265147304731
 1 -13.46064206780678 -0.20965477847785 -1.66795415241524
 1 -13.37403786998700 -1.53306454565457 -3.46510950865087
 1 -12.51323149714972 -0.10408913481348 -3.78459603460346
 1 -11.44084743234323 -1.48046099009901 -3.50122923842384
 1 -8.95197609350935 -4.75263811211121 -1.98047562896290
 1 -7.88971267226723 -5.95934604280428 -0.79134336243624
 1 -9.44797696349635 -5.06732351935193 -0.02071032723272
 1 -3.29250938293829 -3.47933951845185 -0.19156580958096
 1 -1.74043513351335 -4.25298367566757  3.57546423342334
 1 -2.81673686108611 -5.45075571797180  3.69187640974097
 1 -1.37655908240824 -5.85952012911291  2.82790949384939
 1  2.67793246434643 -1.78154784468447 -1.40537461376138
 1  2.75611731193119 -0.20492757435744 -2.06118813861386
 1  4.42594181848185 -1.01946995319532  0.23265564176418
 1  4.16864780108011  1.21174227052705 -3.05280862316232
 1  5.52056535493549  2.03682807300730 -2.44450880548055
 1  5.74509983278328  0.84397472767277 -3.25631693099310
 1  6.57568059135914  1.47927415511551 -0.40833333563356
 1  6.36256960496050 -0.10951420032003  0.61669267636764
 1  7.55244898699870 -1.46538761046105 -1.38170229892989
 1  7.91543307430743  0.09422629912991 -2.11550169706971
 1  8.92939903710371  0.87443005950595  0.01349531203120
 1  9.03219104190419 -0.59836819221922  0.59124374297430
 1  10.37301901340134 -0.02640787448745 -1.94407823842384
 1  9.22472896929693 -2.27823486778678 -1.97805276647665
 1  11.00071315601560 -2.60165667826783 -1.88713489948995
 1  9.78632610621062 -2.59244086668667 -0.29854194489449
 1  11.41317607980798  0.64510891839184  0.23115507890789
 1  11.54753516321632 -0.97319965806581  0.92113958695870
 1  13.01685742144214 -1.38090495189519 -1.30035837073707
 1  12.80217912391239  0.27851733073307 -1.67953631743174
 1  14.07292879607961  1.06195945144514  0.23899055955596
 1  13.99092518281828 -0.60473291059106  1.11875704540454
 1  15.40192258435844  0.24647450785079 -1.39977963746375
 1  15.83244524552455 -2.25225195109511  0.16010841324132
 1  15.31056858865887 -2.14447264086409 -1.35503322372237
 1  16.86143420202020 -1.92639656825683 -1.03969607840784
 1  16.04550976067607  1.43992306500650  0.74428784978498
 1  16.56072777477748 -0.24371076677668  1.41703463516352
 1  18.19028822072207 -0.55198216201620 -0.50138614621462
 1  17.83232331353135  1.22477373587359 -1.20604408830883
 1  18.56863554635463  2.41569346894689  1.01561666256626
 1  19.07267354475447  0.94896850815081  1.74849120072007
 1  20.79247931463146  0.39927636343634  0.14105185558556
 1  20.33612044534453  3.26257524242424 -0.88731900140014
 1  21.81225733963396  2.18961483938394 -1.07940919491949
 1  20.27452828602860  1.84435583788379 -1.72122254555456
 1  21.17667768306831  1.21037034083408  2.39514895649565
 1  22.30381502200220  2.03207173837384  1.29438370457046
 1  21.06014854745474  3.02867654385439  1.89685561676168

