%nproc=4
%Mem=2GB
# td=(NStates=1) CAM-B3LYP/6-31G(d,p) 

TD

0 1
12 -7.09820148944894  0.65525376607661  0.08815686428643
 6 -4.83311219231923 -1.92298440974097  0.44052968786879
 6 -4.73885319161916  2.91468579587959  1.11767522472247
 6 -9.27584217301730  3.03877627702770 -0.42510384338434
 6 -9.55718674627463 -1.82319249424942 -0.75256337133713
 7 -5.07112989458946  0.39236049654965  0.78706622702270
 6 -4.33614121942194 -0.69240986138614  0.79331123392339
 6 -2.92411337253725 -0.34079935203520  1.17049249044904
 6 -3.04930521972197  1.02966409890989  1.63029583598360
 6 -4.36142422912291  1.49117949834984  1.15109137033703
 6 -2.93900169116912  1.18217470477048  3.23525705180518
 6 -2.05567984888489 -0.61471548164816  0.04722404820482
 6 -0.46679493349335 -0.46733496489649  0.37783636653665
 6  0.50518989738974 -0.55697913001300 -0.68983063486349
 8  0.23735428512851 -0.84842624642464 -1.88367764806481
 8  1.70278730373037 -0.31016592339234 -0.27146136623662
 7 -7.08081569006901  2.59561096839684  0.27333249004900
 6 -6.02140927192719  3.41966292019202  0.68579656365637
 6 -6.45086307600760  4.80174080448045  0.90334809930993
 6 -7.79116971237124  4.79371925862586  0.47208411541154
 6 -8.15504605780578  3.47002729402940  0.08492883208321
 6 -5.62770855205521  5.95135622692269  1.38225475067507
 6 -8.68996820922092  5.84531959996000  0.47993801570157
 6 -8.43575277307731  7.22980906520652  0.25623136083608
 7 -9.14182921862186  0.67338381668167 -0.48784048934893
 6 -9.85722738173817  1.80951163376338 -0.67364248844884
 6 -11.22344708760876  1.40843183358336 -1.11776652625263
 6 -11.28008652935294  0.09491336863686 -1.24401366756676
 6 -9.99469935363536 -0.47748623672367 -0.78131743464346
 6 -12.24727296939694  2.41767404830483 -1.25957648854885
 6 -12.41953199889989 -0.75851691389139 -1.72155733293329
 6 -12.25385171717172 -1.22027591279128 -3.17287539293929
 7 -7.22593884598460 -1.43151251285129 -0.03514663336334
 6 -8.26807202950295 -2.36293223272327 -0.42803060896090
 6 -7.82426009350935 -3.64031821472147 -0.50518894789479
 6 -6.49934545654566 -3.62305662116212  0.03680118801880
 6 -6.19141391959196 -2.16755290979098  0.15335695709571
 6 -8.66284662936294 -4.89290210911091 -0.74365391239124
 6 -5.26491302900290 -4.35195118041804  0.20140864076408
 8 -5.09569093089309 -5.57848050165016  0.16528256305631
 6 -4.10622403240324 -3.29366230033003  0.48207909990999
 6 -3.49392375657566 -3.66491257585759  1.82099327902790
 8 -3.66982063666367 -3.19937317011701  2.90785450075008
 8 -2.61882323022302 -4.55299345184518  1.62964105210521
 6 -1.92503514201420 -5.03518398769877  2.80528186518652
 6  2.63432720932093 -0.36965622332233 -1.26229160406041
 6  4.03131645404541 -0.22687653705371 -0.68268079677968
 6  5.14394800220022  0.47637096159616 -1.09311921212121
 6  5.11673909050905  1.24636917321732 -2.41269836093609
 6  6.41151760936094  0.40839964686469 -0.23483016921692
 6  7.65271301020102 -0.14936681858186 -0.97772744144414
 6  8.91424050645065 -0.00136987048705 -0.17827042124212
 6  10.14983587658766 -0.52097919621962 -0.74662105650565
 6  10.03989117531753 -1.95388472337234 -1.39254091559156
 6  11.44236535363536 -0.25992688328833  0.03273347204720
 6  12.73935110411041 -0.57646416231623 -0.71966250605061
 6  14.00629631743174 -0.15140190339034  0.17078429142914
 6  15.36230157415742 -0.32001461316132 -0.39803285358536
 6  15.64875897809781 -1.85218800460046 -0.67226450625063
 6  16.43455670967096  0.30867525362536  0.48873805850585
 6  17.85173087738774  0.28151627742774 -0.19732801270127
 6  18.70944634413441  1.24713656045605  0.75540790249025
 6  20.17547522732273  1.29717546214621  0.35106471007101
 6  20.37832806170617  2.07622327032703 -0.95744156555656
 6  21.17233510761076  1.98927329672967  1.38112481408141
 1 -3.89885014351435  3.56560494219422  1.41336585758576
 1 -10.06293004470447  3.77512509640964 -0.59412371497150
 1 -10.29794905670567 -2.58148820352035 -0.99191273877388
 1 -2.64324301500150 -1.08104776847685  2.00519775837584
 1 -2.32914255225523  1.81285977457746  1.26327069356936
 1 -1.91302502580258  0.80443593259326  3.37539775317532
 1 -2.87708249444945  2.24583404000400  3.49180374787479
 1 -3.59099008020802  0.66472083978398  3.63974785928593
 1 -2.29388191509151 -1.69636555695570 -0.17805279127913
 1 -2.30207440964096  0.00827291859186 -0.80317541914191
 1 -0.29517661166117  0.43298122162216  1.04181643354335
 1 -0.36626257995800 -1.18111108650865  1.24091696759676
 1 -5.08105027272727  6.36656183128313  0.72774455665567
 1 -6.20710538083808  6.66914671347135  1.72287697689769
 1 -5.13904713351335  5.51430660206021  2.24175785448545
 1 -9.78838633753375  5.51366430253025  0.44633247774777
 1 -9.28927956835683  7.80557914741474  0.08951954525453
 1 -7.50449548614862  7.43659422862286 -0.05259973057306
 1 -12.14824023682368  3.35194249954995 -2.09497579597960
 1 -13.27821303480348  1.87533317141714 -1.49667319101910
 1 -12.61410837223722  2.90443352875288 -0.43087458545855
 1 -12.23327585568557 -1.57252965116512 -1.05258546644664
 1 -13.46491249484949 -0.35075888888889 -1.51083844084408
 1 -13.09661012721272 -1.92806404560456 -3.27534053175318
 1 -12.41894206820682 -0.32575130103010 -3.96779435443544
 1 -11.35542889048905 -1.80414335833583 -3.26085520102010
 1 -9.17992888878888 -4.83049589788979 -1.76357393879388
 1 -7.94921862286229 -5.75575568376838 -0.72272650075007
 1 -9.45366753255325 -5.06139292629263  0.01853359715972
 1 -3.36559669166917 -3.47122870737074 -0.31429808280828
 1 -1.42008309830983 -4.14337271457146  3.09924661166117
 1 -2.63383857125713 -5.24741538393839  3.72405962806281
 1 -1.17543897039704 -5.85611978907891  2.59594629752975
 1  2.48538320942094 -1.42761245114511 -1.78576265256526
 1  2.59740144034403  0.19006192459246 -2.24249626942694
 1  4.17686691099110 -0.95512351855186  0.14346672287229
 1  4.12057299359936  1.68617971427143 -2.68190153245325
 1  5.95037833623362  2.06013040324032 -2.51893624822482
 1  5.26926224902490  0.46642697289729 -3.38556985628563
 1  6.61629465276528  1.45611183888389  0.04544204190419
 1  6.22772612061206 -0.37287053595360  0.59485049214922
 1  7.46946068816882 -1.25874694639464 -1.23413754245425
 1  7.75868739973997  0.40821769826983 -1.89925007190719
 1  9.05128122532253  1.08422103860386  0.03189715221522
 1  8.94699252205221 -0.54376273167317  0.76921153975398
 1  10.14157586908691  0.25527029332933 -1.77950178077808
 1  9.19913641004100 -2.05465250955096 -2.10527548874887
 1  11.13518660336034 -2.21801831443144 -1.99931611761176
 1  9.89985745934593 -2.64476609920992 -0.58181027172717
 1  11.44345910811081  0.67172157965797  0.35538750215021
 1  11.53901431113111 -0.82020435853585  0.95382285528553
 1  12.89934567026703 -1.59326618801880 -0.98530686558656
 1  12.81995090109011  0.19878935793579 -1.58930729452945
 1  13.65207671087109  0.84704796029603  0.36895355585559
 1  13.92982907320732 -0.41964440174017  1.23920909060906
 1  15.46435882798280  0.11164102450245 -1.35858551805181
 1  15.57413941494150 -2.65869259515952  0.08616101850185
 1  14.83472100390039 -2.31378957255726 -1.29088680908091
 1  16.66308436703671 -2.02042597119712 -1.21422353115311
 1  16.23635884558456  1.29302837553755  0.64516793779378
 1  16.51784348634864 -0.37732412811281  1.42406533823382
 1  18.41040023192319 -0.78272523632363 -0.29102511011101
 1  17.87861794299430  0.71102236073607 -1.28059154305431
 1  18.15583426622662  2.21969386898690  0.91248634953495
 1  18.70294657205720  0.76851046234623  1.71812816441644
 1  20.65113518021802  0.26028246404641  0.34923267366737
 1  19.93272010531053  3.14514349924993 -0.96743701320132
 1  21.39851596549655  2.07096297419742 -1.32580383438344
 1  19.92532336553655  1.68191959425943 -2.04310473377338
 1  21.36296631193119  1.47544684848485  2.34036347794780
 1  22.22072671317132  2.38753728492849  1.13856812301230
 1  20.67875040764077  2.97915159135914  1.44655058625863

