%nproc=4
%Mem=2GB
# td=(NStates=1) CAM-B3LYP/6-31G(d,p) 

TD

0 1
12 -7.11897356665667  0.58972721342134  0.06680472907291
 6 -4.87042592369237 -1.94195630693069  0.55167080198020
 6 -4.82150145644564  2.76428075537554  1.14918837603760
 6 -9.43266785558556  3.11256365576558 -0.40037137013701
 6 -9.47966899449945 -1.73578375337534 -0.92802091709171
 7 -5.12251503310331  0.41176243674367  0.76141366176618
 6 -4.37237484278428 -0.62317293769377  0.82315421822182
 6 -2.93986494769477 -0.34996026812681  1.31023646484648
 6 -2.98891918111811  1.09112024452445  1.77976078247825
 6 -4.34448253495350  1.54640502090209  1.23467972917292
 6 -2.92302009300930  1.16274276157616  3.29741326742674
 6 -1.84968924982498 -0.63015702580258  0.16441576737674
 6 -0.35976423042304 -0.51948017941794  0.54629321222122
 6  0.57364674307431 -0.72563599569957 -0.62067371917192
 8  0.15306585628563 -1.03104450825083 -1.71574085438544
 8  1.80799782478248 -0.40449535633563 -0.20180440054005
 7 -7.07179478797880  2.63654506180618  0.32480763756376
 6 -6.12877000800080  3.34838579247925  0.80312829682968
 6 -6.38622661236124  4.77017764816482  0.82732049654966
 6 -7.71668226362636  4.87642752945295  0.39969687668767
 6 -8.13630418361836  3.48006829812981  0.05295563476348
 6 -5.51603738493849  5.85879697099710  1.36696322152215
 6 -8.61202041444144  6.08577364536454  0.17011703360336
 6 -8.14180337813781  7.29547563186319  0.02448818651865
 7 -9.15328036373637  0.67139361766177 -0.55297700300030
 6 -9.93055471447145  1.82111279387939 -0.74008913311331
 6 -11.19423416631663  1.40102109250925 -1.15553030263026
 6 -11.23247176787679  0.06786066336634 -1.24177344354435
 6 -9.95560544424442 -0.37259574767477 -0.82446174907491
 6 -12.37172541464146  2.37878015891589 -1.28856938783878
 6 -12.40080012571257 -0.75002606480648 -1.67285246244624
 6 -12.39071540354036 -1.06940082528253 -3.18542664806481
 7 -7.27860411251125 -1.42621198279828 -0.09531264996500
 6 -8.30163538583859 -2.29140508000800 -0.57951575747575
 6 -7.79468713621362 -3.60502468536854 -0.48419684868487
 6 -6.49454497649765 -3.55183949944995 -0.11716420852085
 6 -6.27142192039204 -2.24583073757376  0.13400502190219
 6 -8.63201354605460 -4.82263508240824 -0.85824537153715
 6 -5.30084662236224 -4.31255724102410  0.02168066796680
 8 -5.12226358815882 -5.57473012661266  0.03180921572157
 6 -4.13609701970197 -3.26271920602060  0.50834172617262
 6 -3.52082644684468 -3.66680276487649  1.85371655135514
 8 -3.70795445004500 -3.12771600440044  2.92312602790279
 8 -2.74388573647365 -4.81203935643564  1.75100318831883
 6 -2.23229586808681 -5.40721119041904  2.95256659365937
 6  2.93204698129813 -0.67553681138114 -1.23639901480148
 6  4.12970629302930 -0.35477932733273 -0.49849237793779
 6  5.15036864426443  0.54164748924893 -0.87834773497350
 6  5.11172858945895  1.44382891919192 -2.04214130523052
 6  6.41710816841684  0.55614442134213 -0.16345303150315
 6  7.52178991789179 -0.28933081498150 -0.81668133683368
 6  8.87822690509051 -0.14321405490549 -0.03957655185519
 6  10.13575446844684 -0.59825692399240 -0.84268066246625
 6  10.06099328552855 -2.03497283218322 -1.42253391489149
 6  11.48732985008501 -0.34275516611661  0.07365756445645
 6  12.72057922692269 -0.51658817471747 -0.60943148294829
 6  13.90498618641864 -0.10828759195920  0.23125033803380
 6  15.26409175317532 -0.26646925862586 -0.57327037733773
 6  15.60038414061406 -1.68231101690169 -0.92620990079008
 6  16.43723697769777  0.33474786088609  0.33268245294529
 6  17.82700840514051  0.55427355315532 -0.31344962486249
 6  18.78004340384038  1.41378322512251  0.66940930263026
 6  20.24655233503350  1.38576432103210  0.24576418001800
 6  20.31892212111211  2.16484213221322 -1.15347116851685
 6  21.18241611571157  2.01669603900390  1.24646134773477
 1 -3.98035829432943  3.51786016771677  1.50239476047605
 1 -9.98509226092609  3.90105768966897 -0.31351565416542
 1 -10.37524678647865 -2.58381843654365 -1.23738728622862
 1 -2.81871056175618 -0.99747941164116  2.17123436203620
 1 -2.25731536953695  1.89436792539254  1.44041840834083
 1 -2.00234395769577  1.04288977797780  3.67979819321932
 1 -3.21373615981598  2.24308376497650  3.77379194669467
 1 -3.53042402360236  0.59505387308731  3.82933681818182
 1 -1.84519704660466 -1.56158207860786 -0.38870385638564
 1 -1.76688089028903  0.17584967626763 -0.61108621022102
 1 -0.31468856285629  0.36517444094409  1.06598885078508
 1 -0.24669062276228 -1.26429940534053  1.32725560146015
 1 -4.87094926262626  6.40044521962196  0.60084186638664
 1 -6.15593026332633  6.58314811361136  1.92045673487349
 1 -4.73736696549655  5.45750092149215  2.19945362406241
 1 -9.68305580448045  5.83610654675468  0.30744858935894
 1 -8.93959459985999  7.87984657415742 -0.18061746844684
 1 -7.13532856945695  7.60859142834283 -0.15370984158416
 1 -12.34157957075708  2.93655096039604 -2.15885218361836
 1 -13.27774298779878  1.66631226932693 -1.37967149084908
 1 -12.48969593099310  3.05841892729273 -0.39287078507851
 1 -12.43790631873187 -1.58173057125713 -1.16256646454645
 1 -13.18451445504551 -0.02108592159216 -1.54916227322732
 1 -13.40848131433143 -1.91925316451645 -3.25861885958596
 1 -12.21537171117112 -0.06597532343234 -3.74874244924492
 1 -11.30401374897490 -1.59713265726573 -3.44017313281328
 1 -8.88061895779578 -4.60041288958896 -1.82400998239824
 1 -7.96909061006101 -5.58311842004200 -0.85112934103410
 1 -9.63445561136114 -4.90858764576458 -0.37009526572657
 1 -3.40548068006801 -3.36065765026503 -0.37924457745775
 1 -1.87720881088109 -4.49906828412841  3.72245893289329
 1 -3.00956614401440 -5.98673931633163  3.43673089518952
 1 -1.58890031653165 -6.16469064616462  2.65782248514851
 1  2.95246991809181 -1.77230692059206 -1.54694877117712
 1  2.70707240744074 -0.11923900550055 -2.28083010281028
 1  4.35341456575658 -1.00741874807481  0.37984036023602
 1  4.22523345964596  1.38430952725273 -2.64393773607361
 1  5.23964726312631  2.49974436463646 -1.67068142274227
 1  5.96721204400440  1.22142247244725 -2.78348964826483
 1  6.97219024232423  1.55155138283828 -0.05491799409941
 1  6.10961430943094  0.01560831193119  0.75085609270927
 1  7.06310005210521 -1.41393246494649 -0.84855898459846
 1  7.76965849684968 -0.05003812731273 -1.93869401630163
 1  8.97054315151515  1.01688430493049  0.21886584908491
 1  8.78275609840984 -0.88912726812681  0.76097071567157
 1  10.37996970847085  0.19568433473347 -1.57719154975498
 1  9.28642513891389 -2.00588763306331 -2.22078703990399
 1  11.14692777747775 -2.18427494009401 -1.82693887988799
 1  10.06096356995700 -2.80326194879488 -0.60960305100510
 1  11.25605036723672  0.54414882238224  0.72817478087809
 1  11.49864027372737 -1.08465080318032  0.79864733773377
 1  12.79951568726873 -1.53295015641564 -1.03337167206721
 1  12.61970087608761 -0.03173369436944 -1.59463782758276
 1  13.80571207440744  0.88800205570557  0.78165482598260
 1  13.90534662496250 -1.08432086938694  0.87657282698270
 1  15.09869226132613  0.45039489988999 -1.42583224272427
 1  15.56793879487949 -2.35225195109511  0.27277968036804
 1  15.17722525432543 -2.27123531713171 -1.68750647104711
 1  16.60490854945495 -1.64148807740774 -1.16718882768277
 1  16.21212642234223  1.40290936363636  0.66580000100010
 1  16.76508821082108 -0.35540193589359  1.12732566426643
 1  18.30971016291629 -0.59879684348435 -0.21784779237924
 1  17.70737081828183  0.80778203670367 -1.43342682658266
 1  18.37996667946794  2.46014791439144  0.99567466836684
 1  18.41774805220522  0.81571518281828  1.79789614121412
 1  20.76394646134613  0.49789622542254 -0.02894514411441
 1  20.04930176347635  3.31887087198720 -0.90822109160916
 1  21.50351646554655  2.32943882178218 -1.54037529152915
 1  19.82416324952495  1.52857425972597 -1.83157358065807
 1  21.33648366366637  1.50879018281828  2.27894733633363
 1  22.21819646014601  2.13252178337834  0.80249451565156
 1  20.70750328292829  3.05933961016102  1.54490042124212

