%nproc=4
%Mem=2GB
# td=(NStates=1) CAM-B3LYP/6-31G(d,p) 

TD

0 1
12 -7.26202787208721  0.57890613131313  0.08921697029703
 6 -4.96398527962796 -1.92277438873887  0.50857649254926
 6 -4.82839214551455  2.85942026932693  1.39581303850385
 6 -9.42643723252325  3.04348674807481 -0.51802313531353
 6 -9.52969399699970 -1.84322449744975 -0.90630874587459
 7 -5.21594437603760  0.46864812531253  0.84333185358536
 6 -4.48164576987699 -0.64960558095810  0.90525242804280
 6 -2.98281924312431 -0.36744201630163  1.28047348854885
 6 -3.08902919211921  1.05303643614361  1.78375118151815
 6 -4.42237032373237  1.50864124452445  1.25177143834383
 6 -2.86133392439244  1.26165265256526  3.25534906100610
 6 -1.92908718961896 -0.50949495959596  0.07612693849385
 6 -0.48357661166117 -0.24831306270627  0.55222380528053
 6  0.47361674007401 -0.52631606370637 -0.60679233103310
 8  0.11296184588459 -1.04920632443244 -1.71057033733373
 8  1.76354337933793 -0.37819272607261 -0.32449666976698
 7 -7.17867547604761  2.65014642194219  0.31379653645365
 6 -6.15357248824882  3.34286524042404  0.88435641964196
 6 -6.50023801350135  4.70188081848185  0.92652041654165
 6 -7.79930052545255  4.83830371707171  0.42275918291829
 6 -8.18832938613861  3.46869716101610  0.08512885208521
 6 -5.61253703490349  5.83998508980898  1.50084660986099
 6 -8.55902511491149  6.05356042404240  0.16668669056906
 6 -8.13615281308131  7.29835591989199 -0.00261452375238
 7 -9.18301333703370  0.62864934323432 -0.63917562286229
 6 -9.86744840384038  1.78482916551655 -0.69553467766777
 6 -11.17076181908191  1.38643963436344 -1.16505125472547
 6 -11.22252077277728  0.00074395169517 -1.30373964016402
 6 -9.93219310301030 -0.42138062616262 -0.94632393529353
 6 -12.26784502660266  2.41243352425243 -1.28145867676768
 6 -12.42988303400340 -0.81116217841784 -1.76236141334133
 6 -12.23216954895490 -1.12679656485649 -3.28038614401440
 7 -7.25263151525153 -1.39517887948795 -0.04369748844884
 6 -8.32263748604861 -2.28729466896690 -0.43583138903890
 6 -7.80816848434843 -3.71185536843684 -0.40890931993199
 6 -6.47830335233523 -3.57088140364036 -0.03744623672367
 6 -6.14192897109711 -2.15529168366837  0.17287890929093
 6 -8.58529887458746 -4.83874669356936 -0.79243879087909
 6 -5.30885742344234 -4.37923390869087  0.10212871277128
 8 -5.12644400620062 -5.58254090769077 -0.03408737393739
 6 -4.12563597359736 -3.28772170627063  0.54392528452845
 6 -3.59011337553755 -3.70649673427343  1.87130831053105
 8 -3.79428308290829 -3.15888912171217  2.83373708900890
 8 -2.73640498839884 -4.73235138763876  1.71401948994899
 6 -2.13365600410041 -5.29066953625363  2.92780411741174
 6  2.79237301390139 -0.54316357405741 -1.33102847774777
 6  4.18675199759976 -0.43131698109811 -0.59229175787579
 6  5.12270587798780  0.47433075757576 -0.96271617181718
 6  5.25925334193419  1.35423996029603 -2.15734282538254
 6  6.43427988558856  0.44863367026703 -0.14007069326933
 6  7.55354309320932 -0.15550743264326 -0.87606727542754
 6  9.00517960036004 -0.09515924942494 -0.09031162536254
 6  10.20783167616762 -0.56985408370837 -0.81041743614361
 6  10.15334252045205 -2.01709104400440 -1.27502916441644
 6  11.44584570167017 -0.23752464306431  0.04559475817582
 6  12.79149631863186 -0.50427694359436 -0.57767830763076
 6  13.96575226302630  0.06838007480748  0.23126033903390
 6  15.34418976297630 -0.29575218691869 -0.42519556985699
 6  15.72852695489549 -1.65907869366937 -0.89586686648665
 6  16.43694694869487  0.41965635173517  0.44881406610661
 6  17.88309401370137  0.45771389718972 -0.28046632653265
 6  18.94816021552155  1.08680052685269  0.73470583228323
 6  20.31937961776178  1.30566631123112  0.08693829742974
 6  20.31943217211721  2.13070871887189 -1.10198602000200
 6  21.19585745984599  1.86960132953295  1.13148985058506
 1 -4.12863312181218  3.55005338703870  1.84736925792579
 1 -9.96062981468147  3.95965354925492 -0.77550185278528
 1 -10.20297955975597 -2.56305636033603 -1.02524607210721
 1 -2.52683137383738 -1.02021168486849  2.00218745734573
 1 -2.11762140014001  1.55388387698770  1.50336470297030
 1 -1.86102982628263  1.07364285328533  3.64476468986899
 1 -3.20543532973297  2.30833028962896  3.46224079157916
 1 -3.50207118831883  0.60812518021802  3.83057694219422
 1 -1.96660918781878 -1.53378929932993 -0.22538752475247
 1 -2.15429963216322  0.18225031633163 -0.88396349794980
 1 -0.29778687268727  0.73625154865487  1.11743399529953
 1 -0.08594454815482 -0.92129510491049  1.31459433533353
 1 -4.98640080778078  6.55752092719272  0.87220900310031
 1 -6.07438210851085  6.55280507930793  2.12470715991599
 1 -4.85359858865887  5.33162833423342  2.08849252795279
 1 -9.57216471537154  5.92623555965597  0.40145799029903
 1 -8.68506914731473  8.03809239873987 -0.17581698839884
 1 -7.10579561616162  7.35694626382638 -0.33144761536154
 1 -12.11490690349035  2.80047735303530 -2.36795309370937
 1 -13.38311352485248  2.07629326742674 -1.48471199489949
 1 -12.21757871927193  2.97461054645465 -0.38140963896390
 1 -12.67681020912091 -1.75720811901190 -1.30415062296230
 1 -13.40719672327233 -0.24224803780378 -1.61564892189219
 1 -13.00416088228823 -1.84073531273127 -3.71235423312331
 1 -11.94924509850985 -0.16297502340234 -3.86038361336134
 1 -11.19794314191419 -1.54963790779078 -3.62760187568757
 1 -9.09234012991299 -4.78288113641364 -1.73303088448845
 1 -7.99042274327433 -5.66302641084109 -0.64247847594759
 1 -9.54372653845384 -4.90699748674867 -0.20707896409641
 1 -3.42410254225423 -3.45162674717472 -0.53952060506051
 1 -1.58649973997400 -4.55371374867487  3.40778746574657
 1 -2.94892007940794 -5.54882552495249  3.49825704780478
 1 -1.55374680118012 -6.36530070717072  2.64435113801380
 1  2.74820949204920 -1.58229791969197 -1.76596067236724
 1  2.45415711591159  0.12030494889489 -2.08158017781778
 1  4.39556878117812 -1.14023202940294  0.32235461166117
 1  4.13275421172117  1.70072116841684 -2.56053939623962
 1  5.67139043744374  2.28830322052205 -1.89073342794279
 1  5.61375669846985  0.83948427862786 -3.01512281158116
 1  6.63210623392339  1.46588281598160  0.01484898259826
 1  6.52549589758976 -0.09848309720972  0.89619062616262
 1  7.30267400950095 -1.04646571827183 -1.10373450215021
 1  7.99174070507051  0.41400827732773 -1.77405755265527
 1  8.94482057925793  1.07345996249625  0.20819478197820
 1  9.03590141294129 -0.69019737513751  1.09461408000800
 1  10.40547225872587 -0.02088732243224 -1.76809063966397
 1  9.21762825922592 -2.24666171047105 -1.73559852105210
 1  10.82932601730173 -2.38921543414341 -1.82793897989799
 1  10.29414688828883 -2.82092371497150 -0.42975506620662
 1  11.44204896709671  0.87583199069907  0.18662062546255
 1  11.34298470817082 -0.74421675977598  0.82474994799480
 1  13.07527326302630 -1.69685654705471 -0.77861619651965
 1  12.88799770577058  0.01814129312931 -1.78406677047705
 1  13.71586308950895  1.21415467096710  0.25373203370337
 1  13.99318540884088 -0.34509694699470  1.33977914761476
 1  14.98019041114111  0.38181804220422 -1.29315897539754
 1  15.69994199519952 -2.28770549644964 -0.04210180778078
 1  15.05452298409841 -1.97086528012801 -1.80010773117312
 1  16.90324838343835 -1.80844477307731 -1.07800990979098
 1  16.21560677037704  1.57229630233023  0.60463388438844
 1  16.35781748374838 -0.03446984268427  1.48343127482748
 1  18.10645983788379 -0.47238420222022 -0.53039904750475
 1  17.85800588178818  0.83739499799980 -1.22078556245625
 1  18.39272795559556  2.00787268686869  0.83900900180018
 1  18.84387066446644  0.50293390469047  1.57064341594159
 1  20.65786585328533  0.28887532333233 -0.12854510411041
 1  19.99292612591259  3.06341532643264 -0.95748601810181
 1  21.36572268616862  2.22343822172217 -1.35817707170717
 1  19.70250108330833  1.84664606690669 -2.05959638293829
 1  21.53987400270027  1.15370467426743  1.97705714731473
 1  22.31366600710071  2.36477500870087  0.52585685188519
 1  20.76051858445845  2.83784746094609  1.62958889008901

