%nproc=4
%Mem=2GB
# td=(NStates=1) CAM-B3LYP/6-31G(d,p) 

TD

0 1
12 -7.18687035633563  0.56383462416242  0.13238128672867
 6 -4.85112399349935 -1.89710182148215  0.54630026492649
 6 -4.87573687998800  2.89850417771777  1.28225168236824
 6 -9.48234282308231  3.04468686808681 -0.37982931593159
 6 -9.52013304090409 -1.74690486548655 -0.82841095609561
 7 -5.10639342094209  0.44938619911991  0.88692621302130
 6 -4.31258886418642 -0.66184680508051  0.82032393519352
 6 -2.95186614781478 -0.35802107420742  1.23381882308231
 6 -2.99925021422142  1.15466659915992  1.68026083248325
 6 -4.42505059175918  1.61538191859186  1.19991625282528
 6 -2.67722551355135  1.18243473077308  3.18108163426343
 6 -1.94784906580658 -0.52600661076108  0.08257758355836
 6 -0.46020427442744 -0.39726795819582  0.54846342924292
 6  0.53154253265327 -0.56755018711871 -0.67598925072507
 8  0.21551210091009 -0.85832723652365 -1.79885916621662
 8  1.66040306530653 -0.47982288908891 -0.14070829092909
 7 -7.22147975647565  2.50209161646165  0.50789594639464
 6 -6.21443857485749  3.34273522742274  0.77780576457646
 6 -6.46711470117012  4.71518214861486  0.89370713521352
 6 -7.83485408080808  4.75339522622262  0.42501940894089
 6 -8.24068462166217  3.40596088738874  0.11110144934493
 6 -5.53386916811681  5.85972706400640  1.24432095729573
 6 -8.62999221162116  5.96850191819182  0.05007502940294
 6 -8.25742494029403  7.25543162746275 -0.05615987828783
 7 -9.16956199189919  0.63152963126313 -0.47523922922292
 6 -9.93527518651865  1.76390707330733 -0.46572169636964
 6 -11.24149889278928  1.42972396279628 -0.94510926052605
 6 -11.20173869456946  0.08725260256026 -1.11225049124913
 6 -9.96313619731973 -0.45262375047505 -0.74156345924592
 6 -12.32768101020102  2.40505278617862 -1.21227175807581
 6 -12.42560260596060 -0.89285034723472 -1.55957113431343
 6 -12.24324065606561 -1.34329821502150 -3.08624673007301
 7 -7.25946219831983 -1.32972233383338 -0.17570068876888
 6 -8.22121734403440 -2.28861480098010 -0.59052685858586
 6 -7.73710137763776 -3.60760494339434 -0.53813224222422
 6 -6.37345286728673 -3.48205252075208 -0.19493198529853
 6 -6.09759453765377 -2.08067422192219  0.04828645004500
 6 -8.45656600130013 -4.88343116201620 -1.01108065506551
 6 -5.18124466216622 -4.25373135843584  0.06458495839584
 8 -4.97046840864086 -5.44357701130113 -0.09511347654765
 6 -4.18206161616162 -3.23034596869687  0.57489838183818
 6 -3.52747711191119 -3.49673575817582  1.88447962766277
 8 -3.72119577417742 -2.90744397719772  2.94350806610661
 8 -2.72130347824782 -4.55229338183818  1.71820990899090
 6 -2.20554319281928 -5.19803027232723  2.89836117311731
 6  2.72027580418042 -0.65620487818782 -1.19212458735874
 6  4.03524684708471 -0.39432328172817 -0.55174770347035
 6  5.06512011941194  0.41846517101710 -1.02943284348435
 6  4.98492590919092  1.24836937323732 -2.21490858195820
 6  6.47287374497450  0.38596740364036 -0.35156184238424
 6  7.65332307120712 -0.19653153505351 -1.14970463916392
 6  8.88700778317832 -0.21540127362736 -0.21085367956796
 6  10.20257115011501 -0.55681277957796 -0.94782117651765
 6  10.07485467166717 -2.07716705160516 -1.41826348784878
 6  11.36737785488549 -0.25449634023402  0.01575177387739
 6  12.82513968296830 -0.43648016391639 -0.70300083988399
 6  13.97398308610861 -0.25411217441744  0.17157437043704
 6  15.30992633663366 -0.15469808150815 -0.46648969926993
 6  15.88143224542454 -1.61794458025803 -0.92299957975798
 6  16.42270552455245  0.35082946904690  0.52579176387639
 6  17.73725943024303  0.53013113891389 -0.12914119401940
 6  18.75023042254226  1.20507235403540  0.77054941664166
 6  20.15392307210721  1.21086683128313  0.31694129772977
 6  20.49482971187119  2.09598524652465 -0.96896271767177
 6  21.21096897099710  1.77722209160916  1.47721442304230
 1 -4.22698295679568  3.79015739743974  1.48682320332033
 1 -10.06476022772277  3.80357794169417 -0.50530483308331
 1 -10.33262252405240 -2.52168222292229 -1.10073362086209
 1 -2.67953664436444 -0.99002866656666  2.08514575317532
 1 -2.31663130113011  1.85558404700470  1.23772813931393
 1 -1.58471219451945  0.95120060906091  3.36795700910091
 1 -2.92059684588459  2.31799125572557  3.46822138963896
 1 -3.39494047524752  0.45721008870887  3.68618250275028
 1 -2.17671019791979 -1.43893981438144 -0.28812379837984
 1 -2.15604980718072  0.18594068536854 -0.85922102370237
 1 -0.11783887788779  0.44598252175218  1.06822907480748
 1 -0.25744169786979 -1.03200617601760  1.34467734363436
 1 -4.93714588228823  6.13141831693169  0.44354613681368
 1 -6.22075674597460  6.51880167896790  1.79399408860886
 1 -4.87491071987199  5.45092026342634  2.14932861156116
 1 -9.85897339623962  5.70051298739874 -0.17444960046005
 1 -9.13375401580158  8.05731432093209 -0.19577898459846
 1 -7.35227026362636  7.63328389758976 -0.31096556715672
 1 -12.34509992279228  2.71636894219422 -2.49566586498650
 1 -13.25100031353135  1.77887352545254 -1.25162868656866
 1 -12.42817977937794  3.24847793319332 -0.43860535853585
 1 -12.30489301740174 -1.91147354555456 -0.83960416831683
 1 -13.34726072967297 -0.47708152115211 -1.31149850685069
 1 -13.04213467966797 -2.01773301250125 -3.51894489218922
 1 -11.88627880188019 -0.40532925882588 -3.82012958795880
 1 -11.29521286888689 -1.98736168016802 -3.15819493499350
 1 -8.82152304820482 -5.05625847414741 -2.17812539393939
 1 -7.73457715871587 -5.66880698889889 -0.78030225832583
 1 -9.39759192499250 -4.76879366636664 -0.39155741194119
 1 -3.36479661166117 -3.42471405590559 -0.14460111311131
 1 -1.60926201620162 -4.62848122542254  3.50890757775778
 1 -3.01861704910491 -5.43353399579958  3.51764898699870
 1 -1.71324275077508 -5.99372354945495  2.34646134903490
 1  2.73335800690069 -1.68128781868187 -1.59470354665466
 1  2.56350805100510 -0.05372245384538 -2.03793581338134
 1  4.10054927922792 -0.94750275647565  0.27118949514952
 1  4.05652658895890  1.52467356365637 -2.59868321062106
 1  5.30843414181418  2.20667505770577 -1.94870922552255
 1  5.46149147194719  0.93727405760576 -3.17472877217722
 1  6.68376139943994  1.41925815351535 -0.12548505080508
 1  6.31233458145815 -0.04882813171317  0.66809781688169
 1  7.42653639573957 -1.12156322802280 -1.52050617931793
 1  7.77086861786179  0.49631650815081 -2.00641078797880
 1  8.98875497269727  0.55375799229923  0.38092205470547
 1  8.67828565136514 -1.09891824722472  0.62649726832683
 1  10.34383609510951  0.01464623092309 -1.91878570917092
 1  9.28859535593559 -2.18333537783778 -2.26876183738374
 1  11.03776686138614 -2.30404691729173 -1.83832001800180
 1  9.89487696129613 -2.71095271787179 -0.62220431113111
 1  11.15796055825582  0.80593500100010  0.50113207660766
 1  11.41370177987799 -1.02906524462446  0.70892836583658
 1  13.10028576427643 -1.45375223662366 -1.01935026992699
 1  12.82686159215922  0.29360883988399 -1.52027039083908
 1  13.84051555475548  0.71063431893189  0.75479213971397
 1  13.97748383868387 -0.86231866916692  1.02917808750875
 1  15.39499189128913  0.49465932633263 -1.45810547004701
 1  15.99810181118112 -2.13555028092809 -0.15272286988699
 1  15.00780831263126 -2.06216441004100 -1.58202592299230
 1  16.76367442604261 -1.48052198079808 -1.61066317511751
 1  15.98598380808081  1.44712378507851  0.69309273027303
 1  16.41499320132013 -0.27268366406641  1.41981491319132
 1  18.03732292419242 -0.48509547334733 -0.42035804340434
 1  17.69630971217122  1.18491975047505 -1.02427591149115
 1  18.21023970677068  2.26131803140314  0.85879097999800
 1  18.80160643804380  0.67736134743474  1.78301465306531
 1  20.26593666036603  0.19695613141314 -0.05541779137914
 1  20.25741257455746  3.16169515441544 -0.57247751725173
 1  21.71642775667567  1.94459033693369 -1.20190144414441
 1  19.70785161836184  1.76058746104610 -1.66048647194719
 1  21.05319533483348  1.12367167096710  2.34744418601860
 1  22.07962260276028  1.90214874607461  0.88140240644064
 1  20.95514804740474  2.87634131033103  1.68198412961296

