%nproc=4
%Mem=2GB
# td=(NStates=1) CAM-B3LYP/6-31G(d,p) 

TD

0 1
12 -7.18890055935594  0.49734797549755  0.17213526212621
 6 -4.87208608970897 -1.99225133643364  0.49016465136514
 6 -4.84946425272527  2.72556688398840  1.16204966216622
 6 -9.35819040784078  3.14340674007401 -0.40655198819882
 6 -9.62956398399840 -1.71466164116412 -0.79987810281028
 7 -5.17639042064206  0.34922618311831  0.75692321272127
 6 -4.38703630893089 -0.79329995039504  0.73488539133913
 6 -2.99050001120112 -0.48319359145915  1.25722116331633
 6 -3.07061735093509  1.05083621612161  1.64536734313431
 6 -4.46329441614161  1.48660904130413  1.20042630383038
 6 -2.85825361636164  1.22594908220822  3.25266879297930
 6 -1.92159644054405 -0.66288029812981  0.08467779357936
 6 -0.51276953095310 -0.39345757715772  0.56016459935994
 6  0.48721810021002 -0.56758019011901 -0.61783343514351
 8  0.22224277397740 -0.82344374817482 -1.74466374667467
 8  1.73392041704170 -0.27945285208521 -0.16102032213221
 7 -7.10367797629763  2.54097550485048  0.37318247504750
 6 -6.04743187418742  3.34757571147115  0.84784276827683
 6 -6.47625561526153  4.72124275467547  0.87607537203720
 6 -7.72539313471347  4.84738462516252  0.33857076407641
 6 -8.11721227442744  3.48674896619662  0.06215655485549
 6 -5.55269105030503  5.82407349864986  1.30892741794179
 6 -8.52861207360736  6.02030709870987  0.28126814871487
 6 -8.06062526032603  7.19207529182918  0.01300703840384
 7 -9.20753578927893  0.64029050735074 -0.47021872717272
 6 -9.88815047404740  1.80036071867187 -0.56481160536054
 6 -11.13660840374038  1.51790278067807 -1.14826957655766
 6 -11.27689621032103  0.16018989628963 -1.31008027422742
 6 -9.98003788748875 -0.37932642074207 -0.90256955985599
 6 -12.29176741884188  2.51414369526953 -1.37194772567257
 6 -12.45020506620662 -0.65193625582558 -1.76162133933393
 6 -12.34393072507251 -1.13382726792679 -3.17231533693369
 7 -7.29562581468147 -1.43414277587759 -0.08804192289229
 6 -8.25526074837484 -2.32041798129813 -0.47371517741774
 6 -7.86677434493449 -3.61902608550855 -0.55716414541454
 6 -6.47536305830583 -3.57168148364836 -0.07415990809081
 6 -6.19534431263126 -2.20583673817382  0.22370399179918
 6 -8.63675402010201 -4.96916973587359 -0.81677122412241
 6 -5.32311884958496 -4.41280726602660  0.23983248314831
 8 -5.15280664246425 -5.57538019161916  0.20761679647965
 6 -4.10749415941594 -3.27334026812681  0.54351524352435
 6 -3.46440080428043 -3.69686577117712  1.74559573927393
 8 -3.59826348094809 -3.16366959975998  2.84676839213921
 8 -2.63047439533953 -4.77208536103610  1.65766385438544
 6 -2.19039167766777 -5.31342181148115  2.92598393539354
 6  2.70009378597860 -0.36232549024902 -1.23366874177418
 6  4.03427675007501 -0.28826267566757 -0.55271780048005
 6  5.07454106150615  0.46777010151015 -0.83652355255526
 6  5.19837725432543  1.26509104540454 -2.19009610071007
 6  6.39047550515051  0.44069287618762 -0.17256394259426
 6  7.57662540144014 -0.07959984188419 -1.00995066376638
 6  8.89176825922592  0.03912417891789 -0.22547514171417
 6  10.16601749474948 -0.47870496879688 -0.85591198559856
 6  10.18380556675668 -2.07800713561356 -1.13878554005401
 6  11.53086420352035 -0.15594648524852  0.02103230193019
 6  12.71538870787079 -0.46612312821282 -0.68173871367137
 6  13.99755544334434 -0.21329809300930  0.14869208220822
 6  15.34477982198220 -0.28214082578258 -0.59807285758576
 6  15.68941304350435 -1.71585437123712 -0.95567284708471
 6  16.44515776977698  0.32693707980798  0.33799298399840
 6  17.87054275857586  0.42676080188019 -0.26721500140014
 6  18.77967336683668  1.25690753755376  0.71398376007601
 6  20.35271295109511  1.27589333393339  0.27651725532553
 6  20.54612484138414  2.02733838183818 -1.00065588698870
 6  21.03807168126813  2.05548991839184  1.37733443504350
 1 -4.02034229272927  3.30124850655066  1.32432695369537
 1 -10.06803055475548  3.95122270617062 -0.63464776737674
 1 -10.22587184898490 -2.52443249794980 -1.31705525302530
 1 -2.71938062876288 -1.13383304700470  1.90498773737374
 1 -2.33154279227923  1.85356384498450  1.06397076357636
 1 -1.77925164846485  0.84197968696870  3.47314752815282
 1 -2.81174596079608  2.30585004160416  3.52286685418542
 1 -3.55314629582958  0.71062543024302  3.75818970347035
 1 -2.23043557045705 -1.65935185558556 -0.38347333333333
 1 -2.24420862306231  0.15297738903890 -0.63892899449945
 1 -0.39828692269227  0.55441336483648  0.99040129202920
 1 -0.06999295299530 -1.16964994039404  1.40917379327933
 1 -5.09627179487949  6.28007318241824  0.39928171037104
 1 -6.19357402770277  6.55975577437744  2.02317700690069
 1 -4.79791302010201  5.52532770417042  2.12883656235624
 1 -9.66116361526153  5.91086402250225  0.41735958045805
 1 -8.89667030743074  7.95478406790679  0.07898849214921
 1 -7.00061509810981  7.35463603280328 -0.13980845144514
 1 -12.04404981778178  2.88597590289029 -2.46903320172017
 1 -13.24045925942594  1.89649528762876 -1.42751627532753
 1 -12.61170813221322  3.27899098449845 -0.55075657365737
 1 -12.58767129522952 -1.60974337253725 -1.11021122902290
 1 -13.44951095469547 -0.24573838683868 -1.54253161016102
 1 -13.43132359855985 -1.56414765396540 -3.26220921862186
 1 -12.07469764376438 -0.23493221912191 -3.83124069906991
 1 -11.62453580118012 -2.20022296629663 -3.29885900140014
 1 -8.63551444734474 -4.98938178647865 -2.15189277067707
 1 -8.02554625562556 -5.86570667886789 -0.73254748284828
 1 -9.83091525732573 -4.62219900690069 -0.37058531473147
 1 -3.43848398039804 -3.52093367786779 -0.26700335333533
 1 -1.61492258225823 -4.54480285758576  3.25183187018702
 1 -3.03419860726073 -5.26007665006501  3.49677689978998
 1 -1.75048647514752 -6.31779595669567  2.72498920182018
 1  2.48544321542154 -1.39719940984098 -1.66674075037504
 1  2.37364906510651  0.40729364776478 -1.96994901470147
 1  3.94876410071007 -0.83426143234323  0.39356173237324
 1  4.23925486178618  1.37201829812981 -2.87041038333833
 1  5.80098339673967  2.27943233343334 -2.19621397599760
 1  5.94135945874587  0.67145747594759 -2.70106140544054
 1  6.39221224452445  1.61531775947595  0.05967346504650
 1  6.16449979797980 -0.12974622352235  0.84540554765477
 1  7.59537327942794 -1.25319639133913 -1.24169829852985
 1  7.73103463446345  0.37251412791279 -1.96848699559956
 1  9.04477057425743  1.10648326482648 -0.08221425892589
 1  8.68025584838484 -0.34743309870987  0.88470308890889
 1  10.27676938843884  0.16622138843884 -1.84011784238424
 1  9.17342383878388 -2.47848489278928 -1.74693965516552
 1  11.14251733643364 -2.32569908250825 -1.61095728172817
 1  10.21592906650665 -2.59325094769477 -0.15499759045905
 1  11.35493025522552  0.81996640414041  0.23589555295530
 1  11.19728013771377 -0.81655399349935  0.88837631063106
 1  12.63474921062106 -1.46201306270627 -1.09509784468447
 1  13.02136104210421  0.14538401740174 -1.53595195899590
 1  13.81225272847285  0.68207146264626  0.61751841234123
 1  13.86067215751575 -1.09675211251125  0.90620579027903
 1  15.37050944304431  0.35220508090809 -1.61327098659866
 1  15.99390139113912 -2.28367509340934 -0.09128672627263
 1  14.90851838363836 -2.37927612121212 -1.42573029342934
 1  16.63411146974698 -1.73682761136114 -1.54782689148915
 1  16.18601381108111  1.35461453415342  0.79708312931293
 1  16.51855355735574 -0.25007140284028  1.16178911061106
 1  18.08409760166017 -0.69913687748775 -0.55189119671967
 1  17.55466554775478  1.03676493499350 -1.12292577647765
 1  18.55668435123512  2.23551545114511  0.72917801870187
 1  18.94642091949195  0.86157976927693  1.55964231583158
 1  20.67846791349135  0.31756819261926  0.30417816821682
 1  20.33754058735874  3.21262024692469 -0.75377564706471
 1  21.55175128902890  1.94133001090109 -1.41303255725573
 1  19.88170900410041  1.68088949124912 -1.78413883718372
 1  21.01967198249825  1.78384768856886  2.37732717431743
 1  22.14354899539954  2.06992552375238  1.19773403960396
 1  20.97430996359636  3.28511218741874  1.48210414161416

