%nproc=4
%Mem=2GB
# td=(NStates=1) CAM-B3LYP/6-31G(d,p) 

TD

0 1
12 -7.23865553485349  0.54973321402140  0.12388043664366
 6 -5.07547642874287 -1.97259937123712  0.58538417331733
 6 -4.89975928222822  2.80947527482748  1.26177963516352
 6 -9.42012660146015  3.05646804620462 -0.38795012801280
 6 -9.59169019661966 -1.72293246824682 -0.95636375137514
 7 -5.13353613521352  0.39111037153715  0.80168768916892
 6 -4.42139974527453 -0.74690531093109  0.75442734553455
 6 -2.94149511071107 -0.35472074417442  1.16184162536254
 6 -2.95487577677768  1.12058319081908  1.63135594199420
 6 -4.39829791649165  1.52458283868387  1.14374063526353
 6 -2.77210500150015  1.30077656495650  3.07785131123112
 6 -1.93233751465147 -0.77773178327833  0.12682200800080
 6 -0.45366362036204 -0.51926015741574  0.53091167406741
 6  0.54705408380838 -0.70894432653265 -0.63063471527153
 8  0.13696424612461 -0.86787819161916 -1.75946522682268
 8  1.77068409340934 -0.54661956875688 -0.14607882798280
 7 -7.13387099559956  2.60063147044704  0.37476263306331
 6 -6.09682681368137  3.39195014891489  0.86438442244224
 6 -6.44639262896290  4.71895252565256  0.92279004350435
 6 -7.83413400880088  4.80613049974998  0.49153606060606
 6 -8.14932548574857  3.43490378167817  0.13712405160516
 6 -5.64348012921292  5.93966505780578  1.30771729692969
 6 -8.64545375777578  6.03265833383338  0.28125814771477
 6 -8.09602880068007  7.25001108540854  0.01834757245725
 7 -9.16863189888989  0.70110658895890 -0.47299900520052
 6 -9.95103676267627  1.77305798839884 -0.64608973317332
 6 -11.32985772867287  1.49231022142214 -1.07181193079308
 6 -11.25672419311931  0.13188706600660 -1.29301856805681
 6 -9.89981986568657 -0.35780426852685 -0.86025532843284
 6 -12.32104034613461  2.59223150405040 -1.29548007890789
 6 -12.39528957465747 -0.83490455265527 -1.78062323952395
 6 -12.31670800280028 -1.19417330253025 -3.33655176057606
 7 -7.28567481958196 -1.38121748334833 -0.25309842854285
 6 -8.28913413571357 -2.23475941544154 -0.51935974187419
 6 -7.91088875637564 -3.64148833173317 -0.46155458445845
 6 -6.53326884888489 -3.53870818631863 -0.07191968406841
 6 -6.28958373657366 -2.19617577207721  0.08214983638364
 6 -8.52773311801180 -4.83509632853285 -0.70606015301530
 6 -5.40784732243224 -4.32322830813081  0.30784928482848
 8 -5.29263062486249 -5.52370502410241  0.29066510131013
 6 -4.21176458645865 -3.29234216831683  0.58618951095110
 6 -3.50466483068307 -3.58808489308931  1.85434661436144
 8 -3.78598225282528 -3.26486971977198  2.96380009530953
 8 -2.49594094199420 -4.58199635213521  1.67016510451045
 6 -2.13264590309031 -5.38954942424242  2.90290162716272
 6  2.81975575217522 -0.72262151985199 -1.12840821572157
 6  4.20535385778578 -0.54969881928193 -0.52046457515752
 6  5.04529813721372  0.30965428992899 -0.88712861306131
 6  5.02377979457946  1.22853739003900 -2.04107119821982
 6  6.48898535613561  0.33062186908691 -0.23102978917892
 6  7.66680441934193 -0.26039792169217 -1.11108077677768
 6  8.98715779817982  0.04219448594859 -0.34809740394039
 6  10.26867776077608 -0.42601970027003 -1.04629102350235
 6  10.18537572377238 -1.99585892079208 -1.44685634713471
 6  11.40147126422642 -0.18303919451945 -0.01535133643364
 6  12.84027119611961 -0.42798931483148 -0.73684422422242
 6  14.02947863566357  0.06630986778678  0.11752896589659
 6  15.40507585158516  0.00720810911091 -0.51824487478748
 6  15.61058516071607 -1.39234202000200 -1.16813409320932
 6  16.44586784078408  0.42493687978798  0.52278146284628
 6  17.90550625492549  0.44655278107811 -0.15258353825383
 6  18.84415981548155  1.17996984378438  0.75365772747275
 6  20.34708238803880  1.24658040264026  0.40546014961496
 6  20.60481070997099  1.89430507850785 -0.94854067546755
 6  21.16808468256826  1.85489985938594  1.51459816141614
 1 -4.23936419491949  3.62940132183218  1.45797031803180
 1 -10.05466921862186  3.79081666556656 -0.47784208680868
 1 -10.17445670747075 -2.57676773147315 -1.25111865936594
 1 -2.71726041674167 -1.03452311601160  2.15181241984198
 1 -2.23045268326833  1.53949243784378  1.10006437293729
 1 -1.88698242154215  0.71194668366837  3.48735894929493
 1 -2.83053783998400  2.35754521112111  3.29847441494149
 1 -3.59757073827383  0.94907927562756  3.72905679017902
 1 -2.04448697559756 -1.89785570597060 -0.07967295329533
 1 -2.11343554575458 -0.33366127482748 -0.71359646124612
 1 -0.19230632463246  0.55079300280028  0.71937418931893
 1 -0.31662761646165 -1.18136111151115  1.33734661056106
 1 -4.88736090379038  6.02089726482648  0.36196797899790
 1 -6.23601827212721  6.90066986578658  1.76940162936294
 1 -4.90841407020702  5.65369054045405  1.98687236593659
 1 -9.76036353525352  6.01070400650065  0.37148499299930
 1 -8.76280692109211  8.02319090859086 -0.31700110681068
 1 -7.00522555915591  7.34365493469347 -0.13212768336834
 1 -12.06343175597560  3.60052735803580 -1.80695699409941
 1 -13.22402761626163  2.25450108820882 -1.88797232093209
 1 -12.64336129752975  2.71877496289629 -0.03313481148115
 1 -12.54467699579958 -1.68272067026703 -0.91227143504350
 1 -13.41258726232623 -0.30788460146015 -1.62319967696770
 1 -13.04122458865887 -1.92618385758576 -3.75186818451845
 1 -12.32463263726373 -0.38673739963996 -4.07798537353735
 1 -11.45719906750675 -1.66396934093409 -3.45787490299030
 1 -8.47136803270327 -5.02737558585859 -1.99890747214721
 1 -7.88100180118012 -5.67152726092609 -0.36750097819782
 1 -9.56534870067007 -5.12257904490449 -0.12518077427743
 1 -3.70871100310031 -3.51161274577458 -0.34166081908191
 1 -1.84163525352535 -4.56900527782778  3.72599928692869
 1 -3.08554374177418 -5.95650629302930  3.29742696479648
 1 -1.43299472597260 -6.14880905800580  2.67432413531353
 1  2.94754942604260 -1.75193488338834 -1.49051312761276
 1  2.69406110631063  0.00980389878988 -1.81176319611961
 1  4.25627485178518 -1.08932693889389  0.55739811601160
 1  3.95531646794679  1.26320741704170 -2.40472381468147
 1  5.22257555595560  2.18474286448645 -1.85226958155815
 1  5.54195951875187  0.85616594679468 -2.80639193849385
 1  6.73369639293929  1.43938016571657 -0.20353285558556
 1  6.39842319031903 -0.09524277317732  0.56564757185719
 1  7.48457219931993 -1.32087315901590 -1.22949707840784
 1  7.59347087808781  0.25285216171617 -2.11104125102510
 1  9.15093119031903  1.08904152065207 -0.12148818631863
 1  8.94666248904890 -0.44156251165117  0.65663028162816
 1  10.42332404390439  0.18973373967397 -1.89415324592459
 1  9.30579707610761 -2.02264930923092 -2.21660662186219
 1  11.30888397309731 -2.46301281388139 -1.56923310931093
 1  9.88822629622962 -2.54969659225923 -0.49241133183318
 1  11.27973273547355  0.91309571707171  0.22763472687269
 1  11.50140054975497 -0.76652899099910  0.68774624762476
 1  13.17217295299530 -1.49438630003000 -0.91826016091609
 1  13.07285619161916  0.11628110711071 -1.68426679047905
 1  13.68793029622962  1.16858011351135  0.38188484898490
 1  14.08512460276028 -0.42613505080508  1.27013218291829
 1  15.44807719981998  0.70220008040804 -1.40712037153715
 1  15.41163316431643 -2.20300702660266 -0.43016061366137
 1  14.73839137093709 -1.22701089468947 -2.01470919131913
 1  16.59295735433544 -1.49469339793979 -1.68500060886089
 1  16.17370257995799  1.42946201890189  0.98956237723772
 1  16.47946964896490 -0.23742013771377  1.42314524622462
 1  18.18297748964897 -0.61807877167717 -0.65741174877488
 1  17.78603868506851  0.92838409690969 -1.15968945284528
 1  18.61924060686069  2.29143104270427  0.97777287818782
 1  18.63462974037403  0.55083869516952  1.56234258585859
 1  20.61720178687868  0.24085052085209  0.26235398579858
 1  20.37839467276728  2.97373635853585 -0.79721999149915
 1  21.78943505740574  2.01495737363736 -1.49659091309131
 1  19.93616444964496  1.48780018231823 -1.74846526982698
 1  20.78485850115012  1.49231853565357  2.56821626322632
 1  22.19746438693869  1.75087361856186  1.43297756395640
 1  20.87740027262726  3.01283495969597  1.33698963016302

