%nproc=4
%Mem=2GB
# td=(NStates=1) CAM-B3LYP/6-31G(d,p) 

TD

0 1
12 -7.15681735103510  0.62541078177818  0.07454550315032
 6 -4.86486536763676 -1.97918002930293  0.54488012291229
 6 -4.74519382568257  2.78001232853285  1.19022247944794
 6 -9.42192678147815  3.15811821122112 -0.27328866186619
 6 -9.55734676227623 -1.65870604560456 -0.94158227322732
 7 -5.06587936953695  0.38604986548655  0.70336785718572
 6 -4.33075068036804 -0.72072269266927  0.83248515131513
 6 -2.96041700290029 -0.42771804390439  1.31918735993599
 6 -3.04660494969497  1.02713384588459  1.71395420182018
 6 -4.36406449314932  1.49678005840584  1.16485274647465
 6 -2.91369916091609  1.31249773707371  3.28787231333133
 6 -1.88512279317932 -0.79109311941194  0.10993031883188
 6 -0.54404265826583 -0.63326155755576  0.60362894579458
 6  0.40677005540554 -0.85025845794579 -0.51876352815282
 8  0.15547609730973 -1.32204360816082 -1.55087436773677
 8  1.81377840284028 -0.52344725152515 -0.07353157325733
 7 -7.13257086558656  2.55400680798080  0.47203236003600
 6 -6.00490762176218  3.32575352925293  0.82191017501750
 6 -6.33446143584358  4.72052268266827  0.80946871137114
 6 -7.62850344574457  4.80003989068907  0.44181108810881
 6 -8.10875142834283  3.43619391069107  0.16735707490749
 6 -5.43995977717772  5.91080217151715  1.14219074427443
 6 -8.53825303770377  6.06350141814181  0.23335335723572
 6 -8.10273947174717  7.24895097939794 -0.07987224952495
 7 -9.17098213391339  0.65459193749375 -0.36799850515052
 6 -9.90833249224922  1.84092477507751 -0.65263038723872
 6 -11.23225796869687  1.52450344074407 -1.09609435903590
 6 -11.22171069176918  0.18249212651265 -1.21790105630563
 6 -9.89086897059706 -0.41364985308531 -0.90373967686769
 6 -12.29711795389539  2.52168444934493 -1.19999052995300
 6 -12.34834488018802 -0.72086314851485 -1.71064624182418
 6 -12.11167749974997 -0.95823970917092 -3.30887899329933
 7 -7.26027227932793 -1.36705606720672 -0.20669378807881
 6 -8.25054027632763 -2.20085602510251 -0.59490729662966
 6 -7.85148281578158 -3.57334151705171 -0.67709613861386
 6 -6.58882440444044 -3.51963627912791 -0.15932842494249
 6 -6.20817559575958 -2.21701785628563  0.17485910731073
 6 -8.72944328902890 -4.79507232613261 -1.01617116411641
 6 -5.35001153885389 -4.36749273457346  0.21467996789679
 8 -5.19063042484248 -5.61229388298830  0.15120115491549
 6 -4.18494190419042 -3.36275921002100  0.53212410441044
 6 -3.57563192739274 -3.63675976057606  1.82016319601960
 8 -3.86702035663566 -3.19727296009601  2.93987770307031
 8 -2.76333768166817 -4.78824697719772  1.83646173417342
 6 -2.01985462396240 -5.20981145044505  2.96332766976698
 6  2.74912868946895 -0.68878813651365 -1.17633300820082
 6  4.08587190959096 -0.54559840924092 -0.49654218291829
 6  4.98240184758476  0.26909023352335 -0.97053695389539
 6  5.01015843244324  1.04488902520252 -2.23570066116612
 6  6.41551800940094  0.51188999589959 -0.22025871207121
 6  7.58670640954095 -0.08256013791379 -1.04531420012001
 6  8.93693277567757 -0.03796352985299 -0.15471806600660
 6  10.15265615861586 -0.40185728402840 -0.91220761516152
 6  10.14269145534553 -1.78419775467547 -1.50838249974997
 6  11.38298941604160 -0.23540443104310 -0.03597339863986
 6  12.79231640064006 -0.42963947984798 -0.73244378417842
 6  13.96416210401040 -0.09787655085509  0.12627984098410
 6  15.35205054905491 -0.07825043674367 -0.54108715901590
 6  15.74752885508551 -1.52091487728773 -0.90234751455146
 6  16.35594884888489  0.41768615471547  0.44525371007101
 6  17.75985168946895  0.65790391619162 -0.14492277217722
 6  18.87362276177618  1.19101094789479  0.79272163386339
 6  20.26492417221722  1.32138788338834  0.23628323192319
 6  20.35962619151915  2.21127677567757 -1.06169199059906
 6  21.23090096419642  1.89516388578858  1.30368707030703
 1 -3.88109836833683  3.37875625732573  1.41651617261726
 1 -10.25242899459946  3.84935251915192 -0.35549985258526
 1 -10.31864112591259 -2.42532258695870 -1.22674622212221
 1 -2.64588327902790 -1.00578024172417  2.22718995759576
 1 -2.21584122212221  1.75291377997800  1.23497786428643
 1 -1.95591931523152  0.80793628262826  3.49379959335934
 1 -3.05093988018802  2.48223768036804  3.56604117161716
 1 -3.76109709090909  0.47199156685669  3.65638952345235
 1 -2.04344687158716 -1.78502442284228  0.02605761976198
 1 -2.13331753395340 -0.16763467216722 -0.78200330193019
 1 -0.33683077707771  0.38271619511951  1.08722097399740
 1 -0.37656361006101 -1.28463143854385  1.38699157505751
 1 -4.65814798249825  6.12851802690269  0.41854363656366
 1 -6.20604527482748  6.86370616941694  1.44891958115812
 1 -5.01988521732173  5.67658282968297  2.25813949264926
 1 -9.62793029192919  5.68486142224222  0.58021586608661
 1 -8.85365600600060  8.05334392389239 -0.05163457015702
 1 -6.99535457205721  7.34979554875488 -0.43059753035304
 1 -12.17477289008901  3.18450575587559 -2.11992829122912
 1 -13.27996320982098  2.06064170227023 -1.34146767046705
 1 -12.32417937933793  3.37855094049405 -0.24575607360736
 1 -12.48519104720472 -1.54409680788079 -1.10131033893389
 1 -13.18713471707171 -0.08490230323032 -1.58429578657866
 1 -12.92232269846985 -1.62309354855486 -3.67988098579858
 1 -12.21478165216522 -0.05294402030203 -3.98038561356136
 1 -11.12968631623162 -1.47986093009301 -3.37236635213521
 1 -9.45484638053805 -4.69226207450745 -1.91258884028403
 1 -7.91880558155816 -5.62180228842884 -1.06366059415942
 1 -9.57552971877188 -5.05272205920592 -0.37578583478348
 1 -3.33157328932893 -3.39592117661766 -0.06731338433843
 1 -1.25359644964496 -4.45015339263926  3.31948863586359
 1 -2.71812700010001 -5.35717636003600  3.71895911801180
 1 -1.33246467296730 -6.05211938903890  2.62465916881688
 1  2.57995266636664 -1.68387807770777 -1.77382145844584
 1  2.46962866306631  0.10198311671167 -1.95646766656666
 1  4.21447067136714 -1.25578358455846  0.32266464266427
 1  4.10513144944494  0.92642373867387 -2.64767811011101
 1  5.25163846224622  2.02908729892989 -2.13611796639664
 1  5.76479180198020  0.63792412261226 -2.96524782408241
 1  6.63262628592859  1.55732195989599 -0.13669617191719
 1  6.43588693669367  0.11628837993799  0.70473148024802
 1  7.33690743284328 -1.06324739643964 -1.41226535523552
 1  7.75247677867787  0.55175205170517 -1.96996714361436
 1  8.94910100730073  0.98779139563956  0.30325428792879
 1  8.74557238003800 -0.70289864526453  0.69228384698470
 1  10.16773848534853  0.17088185448545 -1.64660849144914
 1  9.21921841824182 -1.89681672597260 -2.17793275447545
 1  11.06504958965897 -2.12728924152415 -1.96214240024002
 1  10.03046051965197 -2.54874649724972 -0.48365045574557
 1  11.62159692189219  0.80520492799280  0.38805076847685
 1  11.47908831853185 -0.68415075317532  0.97288476147615
 1  12.82789852555256 -1.61149801120112 -0.99172750765076
 1  12.75372427842784  0.16035551455146 -1.69171753555356
 1  13.96143764696470  1.01537479297930  0.40069673017302
 1  14.04172026232623 -0.53921635893589  1.02793796349635
 1  15.18499089118912  0.49444930533053 -1.52528218771877
 1  15.53895589658966 -1.88714544044404  0.08447084948495
 1  15.01520905270527 -2.10405859945995 -1.45352307270727
 1  16.79213727232723 -1.74869879847985 -1.29164127292729
 1  15.95979118881888  1.47184625732573  0.76902032303230
 1  16.62226392839284 -0.20390678637864  1.29841277297730
 1  18.23243243514352 -0.25992295609561 -0.68186419401940
 1  17.71489157035704  1.28699995849585 -1.04621810571057
 1  18.54793347614761  2.14463636323632  1.51356645754575
 1  18.95456173357336  0.12151576287629  1.67846419801980
 1  20.50972103880388  0.25793222902290 -0.17857010661066
 1  19.76134296759676  3.16057504240424 -0.92539280878088
 1  21.34504061796180  2.40372625052505 -1.45993724772477
 1  19.83775460866087  1.79343074537454 -1.77387781108111
 1  21.02421243654365  1.41895119891989  2.38079752135214
 1  22.11937657815782  1.77320585178518  1.16216048224822
 1  21.10513304590459  3.05419909610961  1.62568850005000

