%nproc=4
%Mem=2GB
# td=(NStates=1) CAM-B3LYP/6-31G(d,p) 

TD

0 1
12 -7.12534420372037  0.56030427112711  0.09547759635964
 6 -4.84485336643664 -1.86140825212521  0.47427306220622
 6 -4.90032933923392  2.89191351865187  1.13524698189819
 6 -9.53648823762376  3.08774117351735 -0.28199953295330
 6 -9.51318234583458 -1.71061123612361 -0.90264837983798
 7 -5.10984376597660  0.48745000550055  0.81001852225223
 6 -4.29834744004400 -0.65946656705671  0.85385728852885
 6 -2.80916187738774 -0.23436870897090  1.14530997219722
 6 -2.93735402460246  1.22362349484949  1.64995780218022
 6 -4.36699478617862  1.55412579297930  1.16897315851585
 6 -2.85637342834283  1.41799828712871  3.20649417551755
 6 -1.88485276617662 -0.50871488158816  0.04022334813481
 6 -0.45880413441344 -0.36022425382538  0.51503008590859
 6  0.46985636403640 -0.55011844394439 -0.64834648644864
 8  0.23674422412241 -0.89004040784078 -1.74539381968197
 8  1.82040906590659 -0.37168207500750 -0.27440166026603
 7 -7.18194580308031  2.50949235653565  0.35750090689069
 6 -6.13934106510651  3.32738369226923  0.83902188618862
 6 -6.57183517321732  4.73524415481548  1.00261802630263
 6 -7.83829442484248  4.79824971167117  0.45459236623662
 6 -8.28364891809181  3.33661395269527  0.13934427362736
 6 -5.68670445164516  5.74845593689369  1.68959548474847
 6 -8.70107932033203  6.00229529752975  0.41482150405040
 6 -8.10052925072507  7.21248733303330 -0.06906116841684
 7 -9.11096613231323  0.60424690299030 -0.55081678697870
 6 -9.87809946894689  1.72760344294429 -0.60664578877888
 6 -11.18988373127313  1.41287227762776 -1.13120787038704
 6 -11.24002252295229  0.02805668296830 -1.41073033923392
 6 -9.98797868156816 -0.52843133123312 -0.94919422232223
 6 -12.27017525962596  2.41423370427043 -1.27441797269727
 6 -12.38656870257026 -0.86629769196920 -1.86119129632963
 6 -12.11788812081208 -0.99677356255626 -3.36020412581258
 7 -7.23245949804980 -1.43672303390339 -0.13384650335034
 6 -8.21096631893189 -2.29207514701470 -0.64752255815582
 6 -7.84865253275327 -3.57524170707071 -0.57968639763976
 6 -6.50094561656166 -3.51933624912491 -0.11614410651065
 6 -6.19218399659966 -2.16986314081408  0.06362798419842
 6 -8.61383172787279 -4.75503832273227 -1.04794434143414
 6 -5.40743728142814 -4.31628761406141  0.37408590849085
 8 -5.24636599839984 -5.50223287688769  0.28330436523652
 6 -4.20769417941794 -3.32618555265527  0.59639053105311
 6 -3.59974433863386 -3.65334141874187  1.96599777947795
 8 -3.80416407100710 -3.14108734153415  3.03161687698770
 8 -2.83512486038604 -4.75720387288729  1.80670875887589
 6 -2.29943258175818 -5.19736020532053  3.03822515951595
 6  2.82735651225122 -0.66572583028303 -1.27120249514951
 6  4.10104342674267 -0.50500434983498 -0.61263379207921
 6  5.18669227662766  0.14828815331533 -0.99295919611961
 6  5.20048746534653  1.14648918521852 -2.18709580068007
 6  6.37569402700270  0.26941574847485 -0.14903158935894
 6  7.73248098699870 -0.17800968286829 -0.89023869256926
 6  8.91675075747575 -0.28586832033203  0.00799820562056
 6  10.25031592459246 -0.61189828812881 -0.90843723812381
 6  10.15773295949595 -1.98745808070807 -1.46479814131413
 6  11.50618173527353 -0.35055594619462 -0.01961176247625
 6  12.79626679567957 -0.39523603950395 -0.77289782958296
 6  13.94668035583558 -0.12621938513851  0.10254746774677
 6  15.37080242424242 -0.26960957265727 -0.54095714601460
 6  15.71727582978298 -1.68531131693169 -0.89148642844284
 6  16.39911316531653  0.46634102020202  0.49441862656266
 6  17.75622132643264  0.76415454125413 -0.20832911281128
 6  18.80550595009501  1.34291613841384  0.70703306500650
 6  20.26455413521352  1.37998374297430  0.20251985558556
 6  20.38459868876888  2.11902755075508 -1.09187500890089
 6  21.26481435553556  1.78920328972897  1.24553125472547
 1 -4.04951521002100  3.55060344204420  1.44779930093009
 1 -10.25334908660866  3.91823940784078 -0.30344464706471
 1 -10.41456071787179 -2.38809886458646 -1.12050559805981
 1 -2.31548023872387 -0.85081474517452  2.05499273787379
 1 -2.08834847284728  1.86565505410541  1.37529189568957
 1 -2.08588231153115  1.27197268626863  3.76161637503750
 1 -3.02957774397440  2.39298875547555  3.33275784328433
 1 -3.62448342954295  0.73010737843784  3.66030991549155
 1 -2.08366089298930 -1.80676659705971  0.03921893589359
 1 -2.07629183138314  0.07146923822382 -0.87277237883788
 1 -0.33338043204320  0.64532245574557  1.05802805470547
 1 -0.05730168386839 -0.99642261766177  1.37047992389239
 1 -5.14820698839884  6.05197037213721  0.91041282348235
 1 -6.29319398969897  6.65213501230123  1.95523021222122
 1 -5.15904913371337  5.36627179857986  2.55659933863386
 1 -9.68926642554255  6.06855979207921  0.81882972747275
 1 -8.68983962436243  8.02856144564456 -0.14923433013301
 1 -7.10094513111311  7.30693126232623 -0.48123259385939
 1 -11.88096350915092  3.27388469376938 -1.76346264466447
 1 -13.09552476597660  1.99364500260026 -1.82679620332033
 1 -12.73491045244524  2.74830791619162 -0.30831232923292
 1 -12.20458298639864 -1.76417881608161 -1.35571577947795
 1 -13.20292629622962 -0.21564537753775 -1.58877623462346
 1 -12.97458792499250 -1.60072131133113 -3.79116211391139
 1 -12.08828900290029 -0.16845557145715 -3.88351592659266
 1 -11.18427177477748 -1.77346029002900 -3.30859997549755
 1 -8.70024091999200 -4.97772062036204 -2.15023260466047
 1 -8.04489819081908 -5.67941805000500 -0.74368859695970
 1 -9.65384755055505 -4.96748353535354 -0.56652490869087
 1 -3.36926705870587 -3.56637822232223 -0.09992664566457
 1 -1.91988307830783 -4.34435281258126  3.66417310431043
 1 -3.23202839023902 -5.55341598399840  3.59985720782078
 1 -1.73464489098910 -6.05322950005001  2.84884158705871
 1  2.43645831693169 -1.75211490139014 -1.57814189048905
 1  2.91721342154215 -0.02186926852685 -2.34449646944694
 1  4.25232445674567 -0.99433743994399  0.43325570177018
 1  4.19160009630963  1.49810090639064 -2.51415475777578
 1  5.78354165256526  2.08161255145515 -1.82941729632963
 1  5.76867219001900  0.74926525672567 -3.32297359665967
 1  6.56521954525453  1.38283451115112  0.12301979967997
 1  6.22962631063106 -0.52953620252025  0.75902690979098
 1  7.51819556165617 -1.21037210891089 -1.72644677337734
 1  7.89750128112811  0.66507338383838 -1.79196934383438
 1  9.16454255145515  0.77341995849585  0.68026198869887
 1  9.00778860166016 -1.12968132353235  0.83378799739974
 1  10.06033774527453  0.23314808110811 -1.71530536113611
 1  9.23799029542954 -2.06389343364336 -1.98445340654065
 1  10.97131021572157 -2.49240575317532 -1.94547073307331
 1  10.13518099169917 -2.50505212781278 -0.43015510621062
 1  11.38809357155715  0.67590199769977  0.42842480588059
 1  11.69018942864286 -1.13710604870487  0.82547002000200
 1  12.66430216591659 -1.40226708810881 -1.22291062596260
 1  12.77124603060306  0.12300177917792 -1.81926028982898
 1  13.76728823202320  0.85962921842184  0.60025668616862
 1  13.95395148544855 -0.71590402770277  1.06880204990499
 1  15.15274766686669  0.13756361676168 -1.58880854035404
 1  15.80243224422442 -2.44415114101410  0.01000340274027
 1  15.16428396019602 -2.16998519211921 -1.60343806420642
 1  16.82043010161016 -1.62689661826183 -1.32380448924892
 1  16.17250245994599  1.36486555925593  0.80286370737074
 1  16.40444214621462 -0.02188858455846  1.50622355405541
 1  18.02052124402440 -0.22014897869787 -0.46789279687969
 1  17.82682276347635  1.43887514601460 -0.96686016991699
 1  18.47612629542954  2.48465036463646  0.86987208810881
 1  18.65632190959096  1.00001361266127  1.77199355095510
 1  20.38422848954895  0.27297373317332 -0.21688393799380
 1  19.88854568786879  3.15594457935794 -1.05537580708071
 1  21.54888100200020  2.32592847074707 -1.17957921192119
 1  19.80955178837884  1.71568297059706 -1.71488191149115
 1  21.31967198249825  1.20459976377638  2.18127756935694
 1  22.37465210571057  1.78909744094409  1.06688095429543
 1  21.05062759535954  2.76949062526253  1.45489142034203

