%nproc=4
%Mem=2GB
# td=(NStates=1) CAM-B3LYP/6-31G(d,p) 

TD

0 1
12 -7.06349801910191  0.70528876957696  0.05588363696370
 6 -4.80403928502850 -1.95713782508251  0.48242387728773
 6 -4.87598690499050  2.76080040734073  1.25220867806781
 6 -9.33426801560156  3.18436083548355 -0.41087242024202
 6 -9.52407343494349 -1.76161633663366 -0.85006312131213
 7 -5.08281106270627  0.49297055755576  0.84888240864086
 6 -4.28341594689469 -0.76274689508951  0.84777668046805
 6 -2.91202216341634 -0.41558683078308  1.34533997519752
 6 -3.06419670887089  1.02975410791079  1.81107391379138
 6 -4.33142122882288  1.52394277467747  1.28456471767177
 6 -2.92067985898590  1.21183767106711  3.35456898299830
 6 -1.92652693359336 -0.62092610271027  0.08967829362936
 6 -0.44238249224923 -0.43359159055906  0.58318690159016
 6  0.50083946234623 -0.68560199229923 -0.63657530933093
 8  0.24842539223922 -1.03390479427943 -1.73844312461246
 8  1.75137216221622 -0.38713362016202 -0.23877809790979
 7 -7.10690829932993  2.65088649594959  0.22015717251725
 6 -6.14384151515152  3.28278923282328  0.75331331533153
 6 -6.44926291599160  4.72318294869487  0.95107287178718
 6 -7.72046264166417  4.89085897259726  0.41470837783778
 6 -8.13815436863686  3.51590188148815  0.07675801500150
 6 -5.50607638883888  5.71475256655665  1.53741026622662
 6 -8.59806901930193  6.03689875787579  0.29003902580258
 6 -8.18436763456346  7.29920600490049  0.12284802250225
 7 -9.16269130483048  0.67461393969397 -0.52607431273127
 6 -9.84428608760876  1.77250793339334 -0.67481260546055
 6 -11.21638638153815  1.52597358775878 -1.12452720232023
 6 -11.13935245594559  0.12646652395240 -1.34915418161816
 6 -9.90250013371337 -0.35129361746175 -0.93473277617762
 6 -12.41016925902590  2.37849012991299 -1.37371790269027
 6 -12.38889893559356 -0.76079714191419 -1.61401657885789
 6 -12.44781111311131 -1.40719460466047 -3.16408451385139
 7 -7.24537078917892 -1.34735409700970 -0.12374549324932
 6 -8.21560678297830 -2.26263220272027 -0.57586539243924
 6 -7.83748141564156 -3.62074625752575 -0.57444587358736
 6 -6.52824834683468 -3.55523983948395 -0.15153764586459
 6 -6.18983376157616 -2.14265041954195  0.13383500490049
 6 -8.54263460816082 -4.82863568246825 -1.05664521152115
 6 -5.42175871357136 -4.39502548784878  0.13631213111311
 8 -5.21807316911691 -5.54983763736374  0.27608364316432
 6 -4.22818622862286 -3.32387532163216  0.58278917091709
 6 -3.60234459865987 -3.71410749534953  1.90944212391239
 8 -3.78435208980898 -3.22285551835184  2.99477319261926
 8 -2.76933828172817 -4.76369452195220  1.66869495749575
 6 -2.15240787928793 -5.22885335463546  2.88269960696070
 6  2.85424920152015 -0.58092735043504 -1.19488486338634
 6  4.10978430083008 -0.36609045844584 -0.44290681938194
 6  5.10229383678368  0.41030435493549 -1.07524742494249
 6  4.98428584518452  1.13437797409741 -2.35120221132113
 6  6.43049950755075  0.57461626852685 -0.34711139733973
 6  7.55572331123112 -0.19493137503750 -1.05513518221822
 6  8.89774885728573 -0.00366009950995 -0.21528412261226
 6  10.16541743474347 -0.57329442774277 -0.96494288868887
 6  10.17007419361936 -2.06273560846085 -1.11237289878988
 6  11.34674579167917 -0.20807169776978 -0.10933073437344
 6  12.75736290529053 -0.41749826572657 -0.75754629442944
 6  14.00563625142514 -0.17438420162016  0.20403761676168
 6  15.32053739773977 -0.18977158885889 -0.53195624592459
 6  15.50463456565657 -1.69443222902290 -0.88371565136514
 6  16.46821007500750  0.32137652375238  0.45731491619162
 6  17.99218492279228  0.43561168696870 -0.08802708260826
 6  18.83829922942294  1.33563541034103  0.76362872457246
 6  20.25295297509751  1.40248599319932  0.25187479107911
 6  20.47243747264726  2.12809845784578 -1.06334215561556
 6  21.22394026812681  2.10033440284028  1.32479918151815
 1 -4.12603286178618  3.57732611431143  1.79342386338634
 1 -9.90373412511251  4.03484106800680 -0.55342964556456
 1 -10.39534879667967 -2.43547360206021 -1.04071761926193
 1 -2.38972766346635 -1.17628729242924  2.14863210181018
 1 -2.00041967996800  1.50537902650265  1.47440180668067
 1 -1.91776549984998  0.87585307430743  3.72426263966397
 1 -3.08213299949995  2.13005246184618  3.72027659515952
 1 -3.69247022822282  0.56189055675568  3.73666755125513
 1 -2.03370589748975 -1.59060498089809 -0.39360434643464
 1 -2.40474467666767  0.15383747504750 -0.56097119871987
 1 -0.25261235523552  0.64648257175718  1.05408766066607
 1 -0.16423237693769 -1.20007298269827  1.30196307220722
 1 -4.86524869256926  6.14162933803380  0.67225900810081
 1 -6.11134580488049  6.57502730153015  1.83338802800280
 1 -4.86602983178318  5.34683985538554  2.30203388208821
 1 -9.62441994089409  5.96594953105311  0.59505735023502
 1 -8.79972061246125  8.10193878337834  0.12991358465847
 1 -7.16436147274727  7.54576514571457 -0.32026649724973
 1 -12.29078449124913  3.07479478477848 -2.09593589198920
 1 -13.30814602810281  1.83194883298330 -1.61052457615762
 1 -12.38786574797480  3.09081216661666 -0.68914041204120
 1 -12.79900242834283 -1.63736613481348 -0.83930413831383
 1 -13.17758376197620  0.04944113111311 -1.73486084308431
 1 -13.62895336153615 -1.63313455265527 -3.55377837553755
 1 -12.33557373137314 -0.49893861976198 -3.82375995099510
 1 -11.54878822642264 -2.15161810581058 -3.43008212371237
 1 -8.97155805170517 -4.59158200650065 -2.11346892829283
 1 -7.98703240424042 -5.75929603780378 -1.19685391349135
 1 -9.44587675347535 -4.77753454045404 -0.51071932813281
 1 -3.21394152615262 -3.50458204270427 -0.00632728572857
 1 -1.49972106210621 -4.16756513381338  3.30112679967997
 1 -2.99930511791179 -5.23330397279728  3.55898312041204
 1 -1.64174560106011 -6.24471864896490  2.54606130903090
 1  2.84789946104610 -1.69135882578258 -1.62719679597960
 1  2.69339103930393 -0.01005808740874 -1.97420944074407
 1  4.33357258155816 -0.87623562976298  0.48776115231523
 1  4.04519545584558  1.11825292159216 -2.77085042734273
 1  5.34965826422642  2.13472786298630 -2.55564991959196
 1  5.58232355515552  0.55736606680668 -3.21265256455646
 1  6.72343536683668  1.63161938963896 -0.28865136743674
 1  6.19048239623962  0.18411516261626  0.57423843094309
 1  7.40631437353735 -1.27696876857686 -1.18219234793479
 1  7.86580811181118  0.01909878637864 -2.01839198609861
 1  9.10666676387639  1.01201381788179  0.03830779327933
 1  8.83169099189919 -0.45363371877188  0.74102872147215
 1  10.24493620512051 -0.13990922462246 -1.91845567616762
 1  9.13119961636164 -2.30891793609361 -1.68440340154015
 1  10.83798688338834 -2.43573008560856 -1.61526771277128
 1  10.17508498209821 -2.58504012661266 -0.04871696239624
 1  11.11985674787479  0.85022943044304  0.35134709810981
 1  11.14033444314431 -0.86751909000900  0.64944241724172
 1  12.97141287698770 -1.38376523792379 -1.02494082898290
 1  13.09514842084208  0.21147062606261 -1.62782114591459
 1  13.65803730693069  0.97656091159116  0.65226188668867
 1  14.06087217751775 -0.99934237153715  1.03116828652865
 1  15.41587397949795  0.41789164956496 -1.40853051255126
 1  15.61561356235624 -2.51530825672567 -0.08102570017002
 1  14.89260679247925 -2.12412060566057 -1.59796751715171
 1  16.60965902450245 -1.76285021362136 -1.35045715451545
 1  16.15590079977998  1.31152022472247  0.55609903090309
 1  16.51872357435744 -0.02315871157116  1.45615854755476
 1  18.30454964686469 -0.73014997879788 -0.07334334193419
 1  17.99529961116112  0.70546180468047 -1.30474395829583
 1  18.41893057585758  2.38290018961896  0.70930603150315
 1  18.84048032543254  0.97043065436544  1.80763711531153
 1  20.72279234593459  0.39250568636864  0.02547029742974
 1  20.17276410971097  3.10949993489349 -0.82466273577358
 1  21.57522363626363  1.99510538843884 -1.33239449344935
 1  19.61786261946195  1.96080748304830 -1.81123154645465
 1  21.08330834613461  1.65490479427943  2.14979442104210
 1  22.15732037253725  1.86985551675168  0.93343760996100
 1  20.92739527212721  3.15573925012501  1.39987591879188

