%nproc=4
%Mem=2GB
# td=(NStates=1) CAM-B3LYP/6-31G(d,p) 

TD

0 1
12 -7.11862353165316  0.53742198289829  0.07968601720172
 6 -4.89293817491749 -1.90293240454045  0.61622725762576
 6 -4.70713001930193  2.72180650795080  1.15780923812381
 6 -9.45580016881688  3.03052545194519 -0.21275260826083
 6 -9.56909793739374 -1.72785296029603 -0.85979409440944
 7 -5.13521630323032  0.42974423492349  0.73954147454745
 6 -4.32644024932493 -0.72727334773477  0.89139104190419
 6 -2.89553051425142 -0.46582185428543  1.19166460766077
 6 -2.98261855105511  1.00231136363636  1.63612641904190
 6 -4.33303138983898  1.48959934033403  1.21401766296630
 6 -2.97414520552055  1.13208969626963  3.23178670477048
 6 -1.92040632153215 -0.72750676077608  0.07822714851485
 6 -0.45067332133213 -0.42529076047605  0.52017059996000
 6  0.54550392879288 -0.73090652275228 -0.55476712851285
 8  0.32144269396940 -1.13210461426143 -1.65948522882288
 8  1.83702072707271 -0.33420832763276 -0.31479569966997
 7 -7.13376098459846  2.52764417171717  0.31000615741574
 6 -6.01030816181618  3.30399135303530  0.67078506250625
 6 -6.41374936463646  4.67896852725273  0.81574933943394
 6 -7.66109670507051  4.77368725542554  0.35196210321032
 6 -8.19956050925092  3.38603889518952  0.05735607480748
 6 -5.52524830603060  5.79338042934293  1.43916044124412
 6 -8.49905911831183  5.95774084208421  0.37709773167317
 6 -8.19558875667567  7.24600068436844  0.18967470517052
 7 -9.16817185288529  0.65918239653965 -0.46669837513751
 6 -9.92744440344034  1.81766244884488 -0.68304342854285
 6 -11.19820456335634  1.50743173357336 -1.16294104370437
 6 -11.20768928962896  0.08748262556256 -1.25127439363936
 6 -9.90506038973897 -0.42233072117212 -0.84156345924592
 6 -12.28695693779378  2.46732901380138 -1.44232476337634
 6 -12.38203824952495 -0.72274333653365 -1.74556973417342
 6 -12.17841417341734 -1.12790667586759 -3.23293139853985
 7 -7.27162341444144 -1.38021738333833 -0.13843696239624
 6 -8.37007222952295 -2.23502944244424 -0.50617842374237
 6 -7.82079974747475 -3.64308849174917 -0.50189861886189
 6 -6.56429195119512 -3.60052436793679 -0.10447293939394
 6 -6.15207998619862 -2.17426358085809  0.11601322272227
 6 -8.63889423412341 -4.83832665156516 -0.82467201420142
 6 -5.36679321702170 -4.39170515581558  0.14445294519452
 8 -5.10457181898190 -5.59801245484548  0.10025606040604
 6 -4.21691510151015 -3.33703663776378  0.62799369136914
 6 -3.65949031323132 -3.69765585018502  2.02721390109011
 8 -3.85886954155416 -3.02453568636864  3.01172488778878
 8 -2.85309665756576 -4.63139129162916  1.82149023702370
 6 -2.28778141664166 -5.15929639893989  3.04079541654165
 6  2.77530130673067 -0.54792405010501 -1.24958033293329
 6  4.09441276367637 -0.38998284768477 -0.57137966666667
 6  5.14000760816082  0.39424274877488 -1.07713761396140
 6  5.03275069166917  1.20745528182818 -2.32719981108111
 6  6.47094355195520  0.58843765066507 -0.34294098029803
 6  7.75227296619662  0.25386350445044 -1.13720338903890
 6  9.02604168656866  0.28789905640564 -0.26285888008801
 6  10.19932082508251 -0.30591769006901 -0.98948534293429
 6  9.96402358855886 -1.86577591249125 -1.36258792029203
 6  11.49686080318032 -0.18025891649165 -0.09006880818082
 6  12.86710387938794 -0.40614713061306 -0.78129866966697
 6  14.04159984778478 -0.13857062026203  0.11089830283028
 6  15.41314665866587 -0.13804641634163 -0.52352540284028
 6  15.63729783198320 -1.67220000580058 -1.03708098789879
 6  16.50640389438944  0.27164155025503  0.42439162386239
 6  17.89670537483748  0.38368649444944 -0.03374165406541
 6  18.75275067456746  1.16050789758976  0.87027938963896
 6  20.15622330213021  1.22511825642564  0.36909651325133
 6  20.19697992689269  2.01380702870287 -0.94613043444344
 6  21.09342721682168  1.78613298269827  1.30909761136114
 1 -4.19000925942594  3.48312669436944  1.64508902990299
 1 -10.03142689438944  3.83250083398340 -0.48806310891089
 1 -10.40801006280628 -2.36770682538254 -1.27818136563656
 1 -2.60405909660966 -0.83658332203220  2.05230246884688
 1 -2.33312295029503  1.71061955055506  1.17333169966997
 1 -1.99888361166117  0.68058354735474  3.66359657305731
 1 -3.08337312351235  2.23367282388239  3.65213978147815
 1 -3.76290727192719  0.50892526022602  3.59999388388839
 1 -1.78021054795480 -1.83685960636064 -0.21912689868987
 1 -2.04899910211021 -0.10864877357736 -0.84044914651465
 1 -0.51284837883788  0.69388731223122  0.55137738963896
 1 -0.28969492319232 -0.74245722112211  1.38089096499650
 1 -4.66317848554856  6.19509468456846  0.65843762596260
 1 -6.03924859515952  6.66407620642064  1.82729741894189
 1 -4.88350157895789  5.22772794419442  2.08511218991899
 1 -9.62260975987599  5.75077801390139  0.46713455795580
 1 -8.93694433483348  8.02689127862786  0.34989558285829
 1 -7.06283131973197  7.24929549874988  0.09356488588859
 1 -11.91861727452745  3.26651395669567 -2.18713501190119
 1 -13.12648786228623  2.06775241334133 -1.98318184188419
 1 -12.66331329272927  2.97430051545155 -0.52767426542654
 1 -12.47797032513251 -1.61941433963396 -1.18246845474547
 1 -13.37552355595560 -0.15697951095110 -1.39427678467847
 1 -12.91839230543054 -2.07783902310231 -3.20922392009201
 1 -12.15898607260726 -0.38368709460946 -3.83924149914992
 1 -11.09598294589459 -1.64504744874487 -3.18261737723772
 1 -9.30097099299930 -4.62411525982598 -1.54106168756876
 1 -8.02263596459646 -5.58278838703870 -0.86920114821482
 1 -9.40199236503650 -4.84326111311131  0.02558430223022
 1 -3.34804493649365 -3.73863544804481  0.02100544754475
 1 -1.89097018701870 -4.34338271557156  3.68960564756476
 1 -3.23632882028203 -5.46237688008801  3.49316653875388
 1 -1.67921934843484 -5.89013319041904  2.84203090599060
 1  2.76775144624462 -1.65302499239924 -1.46276035233523
 1  2.65622732293229  0.04055697409741 -2.05665768556856
 1  4.30797002130213 -0.88509651585158  0.28225060126013
 1  3.82206314261426  1.26237733403340 -2.51479482178218
 1  5.32296559495950  2.08095248544854 -2.19515386998700
 1  5.44720004280428  0.64787511771177 -3.06392769206921
 1  6.63597662096210  1.59243547124712 -0.07363986628663
 1  6.39886323432343  0.20286703780378  0.57856886398640
 1  7.62040578267827 -0.66147721942194 -1.35705983468347
 1  7.97151868286829  0.97066394289429 -2.01893204010401
 1  9.20663676087609  1.36726934343434 -0.01392743024302
 1  8.72421024382438 -0.28776713211321  0.57552217081708
 1  10.27184889638964  0.35205997229723 -1.80968479907991
 1  9.02693919031903 -1.80012705700570 -1.99348430963096
 1  11.02531561626163 -2.21258777137714 -1.68966515251525
 1  9.58892636623662 -2.58284990759076 -0.57882997369737
 1  11.49160392259226  0.84478888638864  0.52723468686869
 1  11.40407081678168 -0.73965630373037  0.89690716371637
 1  12.95502123782378 -1.49173603500350 -1.07835617051705
 1  12.77491639763976  0.35673515251525 -1.64418278207821
 1  13.87554905810581  0.84112736823682  0.62309897039704
 1  13.77218330863086 -1.00726316361636  0.91078624832483
 1  15.46687908000800  0.57744760516052 -1.26209586908691
 1  15.85057705870587 -2.37701442734273 -0.15081267886789
 1  14.75734326612661 -2.17107530113011 -1.44518223862386
 1  16.57788584718472 -1.87098102670267 -1.57061917071707
 1  16.26750195989599  1.33094216691669  0.56501992299230
 1  16.28606030803081 -0.46578297399740  1.42643557525753
 1  18.40094928682868 -0.62366933073307 -0.28233424102410
 1  17.91689177037704  0.95430668916892 -1.07034051795179
 1  18.55947463026303  2.31524342394239  1.04583968486849
 1  18.53308958635863  0.73295690699070  2.04519087068707
 1  20.55010507720772  0.11117755355536  0.22809055945595
 1  19.66031286458646  3.00450943584358 -0.84619488898890
 1  21.35308142204221  2.33234911281128 -1.25438669266927
 1  19.78495932913291  1.34503590589059 -1.88520894419442
 1  20.92749276457646  1.31017032083208  2.28058750035003
 1  22.10647528802880  1.74614314551455  1.03595786198620
 1  20.82143467606761  2.76756043224322  1.74384031523152

