%nproc=4
%Mem=2GB
# td=(NStates=1) CAM-B3LYP/6-31G(d,p) 

TD

0 1
12 -7.11045271457146  0.60559880058006  0.06671472007201
 6 -4.81407028812881 -1.90787289858986  0.47493312821282
 6 -4.82539184548455  2.72749707700770  1.25806926412641
 6 -9.38745333413341  3.12260465986599 -0.34520585358536
 6 -9.56681770937094 -1.74479465446545 -0.81445956095610
 7 -5.11654443604360  0.39433069356936  0.69117663806381
 6 -4.28991659695970 -0.71424204460446  0.75366726952695
 6 -2.95963692489249 -0.35171044314431  1.25357079827983
 6 -3.07180746994699  1.04048518101810  1.68092089848985
 6 -4.43059114581458  1.37094747514751  1.17817407860786
 6 -2.87258504950495  1.28264475177518  3.15673920002000
 6 -2.00347462836284 -0.50174418451845  0.05215454125413
 6 -0.43906216021602 -0.45314354575458  0.52166074897490
 6  0.46165554395440 -0.76693012511251 -0.52242389418942
 8  0.15942649234924 -1.18904030783078 -1.68391767206721
 8  1.71291831683168 -0.52601750855085 -0.11923614371437
 7 -7.03302091059106  2.60624203150315  0.46570172697270
 6 -6.04411154215422  3.28072902680268  0.96084406840684
 6 -6.33669165886589  4.71115174557456  0.82671043554355
 6 -7.66569716511651  4.84012389908991  0.35306221322132
 6 -8.17719827302730  3.47825811711171  0.18208854805481
 6 -5.42233801500150  5.80145123642364  1.34499102430243
 6 -8.41539075147515  6.14604967296730  0.09686970887089
 6 -7.93963316111611  7.36881296559656  0.03063880158016
 7 -9.12082711841184  0.68400487878788 -0.50635234053405
 6 -9.84104576357636  1.88878956155616 -0.62360748494850
 6 -11.23500824372437  1.55652664306431 -1.04514926452645
 6 -11.25546406710671  0.08298217551755 -1.23503276947695
 6 -9.98007789148915 -0.36994548264826 -0.86706600950095
 6 -12.19077731983198  2.50416269716972 -1.28023855475548
 6 -12.40721076677668 -0.77929899209921 -1.70896607380738
 6 -12.40165649764977 -1.12647653285329 -3.31702980838084
 7 -7.25082133423342 -1.32263162476248 -0.09913303200320
 6 -8.26237145944595 -2.18600453995400 -0.49394720062006
 6 -7.86184385188519 -3.65288947184718 -0.57073550255026
 6 -6.49364488648865 -3.57585190069007 -0.09244173627363
 6 -6.17400217841784 -2.12871902640264  0.18386000740074
 6 -8.55979632433243 -4.76739955885589 -0.89255880288029
 6 -5.31602814051405 -4.35637162246225  0.15637413731373
 8 -5.18842020382038 -5.53707636123612  0.00195623042304
 6 -4.12755616561656 -3.23506644074407  0.56510740274027
 6 -3.51059542374237 -3.63516960156016  1.80785196489649
 8 -3.62599625422542 -3.06662989578958  2.87058077337734
 8 -2.73736508440844 -4.77191534403440  1.63036112411241
 6 -2.22430506900690 -5.27367783708371  2.88880021702170
 6  2.80170394699470 -0.63628288598860 -1.22841821672167
 6  4.12523584598460 -0.54913876327633 -0.60378290699070
 6  5.08408201560156  0.39297262176218 -0.93143304350435
 6  5.07131454805481  1.20347488378838 -2.15728281938194
 6  6.37289374697470  0.42683149004900 -0.18190487668767
 6  7.57754549344935 -0.12477435933593 -0.92639230793079
 6  8.99095817821782 -0.24731446494649 -0.15138773297330
 6  10.21906279927993 -0.70643774207421 -0.90150654505451
 6  10.11920910711071 -2.18738807370737 -1.20286194769477
 6  11.45492660976098 -0.57799869046905 -0.03040284158416
 6  12.79116628562856 -0.59105562146215 -0.68945948574857
 6  14.01088677647765 -0.30065682888289  0.31629884288429
 6  15.37641298529853 -0.23241585328533 -0.36299935023502
 6  15.66673077527753 -1.72620540634063 -0.97893517331733
 6  16.41082433643364  0.29289367546755  0.54307349204921
 6  17.77404310861086  0.53885201100110 -0.16741502140214
 6  18.67188258775878  1.33603545034503  0.72470483218322
 6  20.11682936273628  1.66908265286529  0.08400800440044
 6  20.02776300520052  2.54826047404740 -1.13842966436644
 6  21.13035090919092  2.33812818221822  1.18593529512951
 1 -4.08807906640664  3.49234761646165  1.62778729972997
 1 -10.17727147884789  3.91714929882988 -0.37347164976498
 1 -10.40314957675768 -2.46307636233623 -0.86191973947395
 1 -2.53596228692869 -0.97394705840584  2.03755099369937
 1 -2.27159679767977  1.60848933753375  1.27212157865787
 1 -1.96561028432843  1.14498998799880  3.52560277367737
 1 -3.34575936213621  2.20290974757476  3.57028159565957
 1 -3.43888486968697  0.57502186988699  3.86706059055906
 1 -2.01057358425843 -1.61474739513951 -0.38845383138314
 1 -2.36129033123312  0.01168325962596 -0.75696079767977
 1 -0.21784887888789  0.35862378587859  1.17667991989199
 1 -0.39735568926893 -1.39577255265527  1.20515339123912
 1 -4.73627579527953  6.28458363346335  0.75455723792379
 1 -6.15145981628163  6.47656745554555  1.78557324652465
 1 -4.99088231703170  5.36344151555156  2.19924360306031
 1 -9.46483398229823  5.82951588768877  0.34315215971597
 1 -8.58094873527353  8.20005859535954 -0.12418182488249
 1 -6.93394843144314  7.56455702490249 -0.02520699129913
 1 -11.85475088788879  3.39282658795880 -1.86729302770277
 1 -13.20558577207721  2.06936257435744 -1.61277480118012
 1 -12.53367032843284  3.02472555795580 -0.35588708670867
 1 -12.59343187128713 -1.68130052825283 -1.23962417031703
 1 -13.24242024562456 -0.30760457345735 -1.51912926992699
 1 -13.37952841904190 -1.61677291649165 -3.57067006470647
 1 -12.21399157315732 -0.05042376827683 -3.79663723872387
 1 -11.55362871047105 -1.80907385138514 -3.74146326182618
 1 -9.08130902680268 -4.91624447274727 -1.93658123952395
 1 -8.08822252325233 -5.52115222342234 -0.77788201630163
 1 -9.39968213401340 -5.00074686168617 -0.14813306950695
 1 -3.36642677467747 -3.58305989048905 -0.23258991199120
 1 -1.78165925592559 -4.46602497979798  3.27734442144214
 1 -3.00606579397940 -5.33760440284028  3.58110533263326
 1 -1.55308673517352 -6.06585076217622  2.69516621952195
 1  2.64540921202120 -1.50963065296530 -1.73438751505151
 1  2.49548124832483  0.06232915131513 -1.98243026282628
 1  4.15182440674067 -1.22835084128413  0.35213758995900
 1  4.08408934523452  1.19989108540854 -2.74173751605160
 1  5.20473377177718  2.24787917811781 -1.85073942854285
 1  5.67759308210821  0.92244257445745 -3.08092939223922
 1  6.57357038033803  1.33875010271027  0.09665716341634
 1  6.53289663766377 -0.33113636253625  0.85583659075908
 1  7.38623236533653 -1.23629470117012 -1.26074020272027
 1  7.82364389538954  0.58511538803880 -1.77804795169517
 1  9.07228332553255  0.65733835033503  0.43859782228223
 1  8.71705952875288 -0.83226158155816  0.81082570117012
 1  10.14445615711571 -0.09720495419542 -1.90753458405841
 1  9.33223972037204 -2.43791083538354 -1.96025098629863
 1  11.14105719041904 -2.35158167076708 -1.56112229822982
 1  9.88983645724572 -2.79730135273527 -0.26985907660766
 1  11.46312107430743  0.46490089758976  0.55674763816382
 1  11.31330173987399 -1.33695603370337  0.80072754575458
 1  12.89742547824783 -1.54855171657166 -1.13415175007501
 1  12.90134904090409  0.09745922492249 -1.47179554335434
 1  13.89852135533553  0.68272152765276  0.82009867036704
 1  14.07083317361736 -0.96229866716672  1.06949211891189
 1  15.24748714081408  0.32745260566057 -1.20767042654265
 1  15.48886088708871 -2.55954268016802  0.01044344674467
 1  15.08639617141714 -1.95708390199020 -1.91559928032803
 1  16.71124918351835 -1.79355328392839 -1.32372448124813
 1  16.21581679137914  1.39492856555656  1.02157557855786
 1  16.59120082208221 -0.40799719541954  1.28047097879788
 1  18.26484567646765 -0.40429739353935 -0.26758276587659
 1  17.67491757295729  1.06079733823382 -1.08987247114711
 1  18.02323100590059  2.32204410401040  1.13834893579358
 1  18.84121039843984  0.62609622092209  1.79181553315332
 1  20.84888495519552  0.87243367916792 -0.16099834943494
 1  19.35791262456246  3.61711069596960 -0.81325159465947
 1  21.09226534043404  2.78266414431443 -1.41711296529653
 1  19.49937077027703  1.98123952625263 -2.02598302160216
 1  21.16544655995600  1.95285458925893  2.30111955355536
 1  22.12490713121312  2.04649318051805  0.57068133433343
 1  21.09653218581858  3.39268294449445  1.29890582178218

