%nproc=4
%Mem=2GB
# td=(NStates=1) CAM-B3LYP/6-31G(d,p) 

TD

0 1
12 -7.15322699199920  0.63364160486049  0.05873392199220
 6 -4.79203808490849 -1.88913102440244  0.53840947584758
 6 -4.80219952625263  2.85173950125013  0.97250070727073
 6 -9.43947853665366  3.07565996539654 -0.29720105310531
 6 -9.50874190179018 -1.75495567056706 -0.89870798579858
 7 -5.06893967556756  0.50965222572257  0.67594511491149
 6 -4.34374197949795 -0.64469508990899  0.72780468326833
 6 -2.88945990719072 -0.36289156125613  1.16533197439744
 6 -2.99631992119212  1.14945607810781  1.61449425582558
 6 -4.35928401510151  1.61164154455446  1.06736299749975
 6 -2.86645443644364  1.30043653095310  3.19355288138814
 6 -1.81157543844384 -0.56238024812481  0.15152447824782
 6 -0.46845509950995 -0.43070130153015  0.64777336023602
 6  0.53977335573557 -0.77198063016302 -0.43923557535754
 8  0.23389393909391 -1.11549295309531 -1.55614489478948
 8  1.80784780978098 -0.41628653545355 -0.04089830993099
 7 -7.13278088658866  2.63249465676568  0.34618977577758
 6 -6.04747187818782  3.41259221312131  0.73129111311131
 6 -6.48632662236224  4.80054068446845  0.87063482798280
 6 -7.78765936133613  4.81722160886089  0.43751065806581
 6 -8.20450100330033  3.48427871917192  0.08987932713271
 6 -5.58436421762176  5.85607669896990  1.42283880908091
 6 -8.73344255665567  6.04635970397040  0.41311133303330
 6 -8.26960615841584  7.17867395169517  0.12507824552455
 7 -9.18651368706871  0.53681015931593 -0.49947165246525
 6 -9.86742840184018  1.77248793139314 -0.59048417261726
 6 -11.23986872977298  1.41700269066907 -1.03199794939494
 6 -11.23982250295029  0.04192807010701 -1.14664393059306
 6 -9.99417930163016 -0.45635412351235 -0.80774007690769
 6 -12.33418166026603  2.27475975687569 -1.31238176907691
 6 -12.41186123182318 -0.80364142634263 -1.74089926712671
 6 -12.38182451445144 -1.03202708790879 -3.31126923232323
 7 -7.13894014611461 -1.42291165276528 -0.30155327402740
 6 -8.20955617791779 -2.20201614111411 -0.62711051695170
 6 -7.76297396489649 -3.58419260216022 -0.51733016201620
 6 -6.41690721272127 -3.46778109360936 -0.07544003610361
 6 -6.12379715791579 -2.07098325282528  0.05700732213221
 6 -8.60747109180918 -4.80526334523452 -0.76937648464846
 6 -5.27506404410441 -4.34009999529953  0.11343984388439
 8 -5.27262862466247 -5.56072872647265  0.22660869566957
 6 -4.13415682568257 -3.34774770887089  0.62063295529553
 6 -3.46233059725973 -3.61069715431543  1.87492867256726
 8 -3.71263491809181 -3.05192842564256  2.92573628892889
 8 -2.79136048394840 -4.78762691519152  1.74788287628763
 6 -2.23292593109311 -5.31124159345935  2.92387372437244
 6  2.82425620222022 -0.77559681738174 -1.02590796569657
 6  4.18722204460446 -0.49804365376538 -0.45197772647265
 6  5.12688629602960  0.24842816731673 -1.04115401560156
 6  4.92966038263826  1.04921945824582 -2.29136622772277
 6  6.44174063166317  0.48254706160616 -0.38486517271727
 6  7.66493423232323  0.01126924502450 -1.12099176787679
 6  8.98869795219522  0.09668993549355 -0.22907550175018
 6  10.18119901290129 -0.50763786208621 -0.96004239863986
 6  10.04875206140614 -1.98290762566257 -1.47274893639364
 6  11.42115323242324 -0.23549444004400 -0.03367316861686
 6  12.80253742274227 -0.58153466936694 -0.71000153995400
 6  13.91001668946895 -0.22157892109211  0.16420363336334
 6  15.34713005700570 -0.19671228292829 -0.52514556485649
 6  15.81007510971097 -1.65452823862386 -1.11910919071907
 6  16.36847010101010  0.40504489058906  0.50571975667567
 6  17.79597530183018  0.65210333613361 -0.14013229312931
 6  18.82602800230023  1.20146199299930  0.89376173787379
 6  20.19852753255326  1.28791453605361  0.29738934253425
 6  20.36032626152615  2.25005065306531 -0.95456127752775
 6  21.12901077517752  1.77403177257726  1.40928763036304
 1 -4.04983524202420  3.51433981568157  1.40094461546155
 1 -10.17819157085709  3.85416300020002 -0.41344564716472
 1 -10.22541180298030 -2.36411646634663 -1.29641318881888
 1 -2.81905059575958 -1.07892755645565  1.94428166676668
 1 -2.32036167416742  1.90399888848885  1.12065643214321
 1 -1.83955767906791  0.91288677767777  3.32830304370437
 1 -3.19858464466447  2.16780623722372  3.64394896239624
 1 -3.39805078627863  0.34258862656266  3.52878676317632
 1 -1.91113364026403 -1.68466438683868 -0.36869185518552
 1 -1.80153435563556  0.26185827712771 -0.58798389999000
 1 -0.16464355835584  0.59217714121412  0.98111036293629
 1 -0.38957491119112 -0.91884485988599  1.42190506640664
 1 -5.03486565426543  6.30965614071407  0.67754953715372
 1 -6.29296396669667  6.52479227802780  2.15074976417642
 1 -5.03350657945795  5.38286345774578  2.17420109880988
 1 -9.74073157205721  5.91080401650165  0.60568841334133
 1 -9.10046068646865  7.98754734423442  0.18488908220822
 1 -7.25292032863286  7.52690325952595 -0.63383785438544
 1 -12.11462687548755  3.02391969726973 -1.97853415181518
 1 -13.34586980048005  1.69673531163116 -1.37338086178618
 1 -12.50672763416342  3.08878196359636 -0.48917041504150
 1 -12.35697822592259 -1.87123952215222 -1.27822803070307
 1 -13.31800780438044 -0.39175298829883 -1.74857221422142
 1 -13.35249571577158 -1.59524076327633 -3.70665366306631
 1 -12.24728490249025  0.08680995509551 -3.57018459345935
 1 -11.59250259785979 -1.60255319931993 -3.75230434593459
 1 -9.02931382728273 -4.81593444174417 -1.84323190459046
 1 -8.12029573057306 -5.81738184638464 -0.55883011111111
 1 -9.47935010081008 -4.68298508550855  0.07465920972097
 1 -3.36518665066507 -3.45429701420142 -0.31666831983198
 1 -1.40691178117812 -4.53757213451345  3.37999468646865
 1 -3.08790397779778 -5.56807745014501  3.55664288638864
 1 -1.66857828432843 -6.15867004410441  2.72911961486149
 1  2.77593226432643 -1.75568525842584 -1.45304938123812
 1  2.63435513571357 -0.13084016561656 -1.91575359515952
 1  4.58268749304931 -1.08877688388839  0.43070544674467
 1  3.76204714101410  1.31246234253425 -2.47512085438544
 1  5.47532083048305  2.02561695189519 -2.21976633123312
 1  5.44669999279928  0.48775910611061 -3.19756105540554
 1  6.62094511781178  1.52671889958996 -0.16064856715672
 1  6.32550589858986  0.04141089218922  0.62311331843184
 1  7.49344308640864 -1.02408348004800 -1.46267039573957
 1  7.83329486048605  0.42793967046705 -2.13359350625062
 1  9.11408750595059  1.17285990249025 -0.03900993849385
 1  8.67217504030403 -0.13579193459346  0.70171479007901
 1  10.51564327582758 -0.08057329102910 -1.88076190679068
 1  9.28301479787979 -2.07496454075408 -2.27138209940994
 1  11.04840792549255 -2.43060957355736 -1.82968915491549
 1  9.70865833943394 -2.61289291189119 -0.70401249194920
 1  11.50647540974097  0.82226663416342  0.39492145554555
 1  11.40357076677668 -0.85975831393139  0.90093756675668
 1  12.89207494319432 -1.52947980938094 -1.09964829972997
 1  12.87612651865187  0.20840031903190 -1.67561592539254
 1  13.85330683388339  0.80253350885089  0.42769943044304
 1  13.80808689898990 -0.77424986228623  1.12300747044704
 1  15.26323871597160  0.51236109650965 -1.57590725022502
 1  15.78202020302030 -2.60778750465047 -0.45238283588359
 1  15.09194672647265 -2.14370256385639 -1.82649036943694
 1  16.82239029762977 -1.53896782538254 -1.70802291109111
 1  16.10596580628063  1.28527760046005  1.08749217021702
 1  16.63167486948695 -0.47929432513251  1.48148107980798
 1  18.28472766466647 -0.32590955475548 -0.71265727332733
 1  17.67445752695270  1.47800905940594 -0.69340282418242
 1  18.44449313211321  2.10627252685269  1.11017611851185
 1  18.91538781618162  0.61216482778278  1.90712706430643
 1  20.49126919361936  0.15570200600060 -0.12113436303630
 1  19.88196502980298  3.26809579447945 -0.51030129962996
 1  21.35195130903090  2.18054393229323 -1.28259951395140
 1  19.75592642584258  1.90249165146515 -1.67743816711671
 1  21.01462147744774  1.01939124292429  2.26452589418942
 1  22.14130877137714  2.04844337553755  1.07353161936194
 1  20.66819935253525  2.72000567676768  1.82010794199420

