%nproc=4
%Mem=2GB
# td=(NStates=1) CAM-B3LYP/6-31G(d,p) 

TD

0 1
12 -7.13073474277428  0.58074631533153  0.03746179477948
 6 -4.85779466056606 -1.96614872617262  0.60595623052305
 6 -4.79277858415842  2.90446477377738  1.25758921612161
 6 -9.37296188498850  3.04812721212121 -0.30328166116612
 6 -9.48471949954996 -1.76989716471647 -0.86580469546955
 7 -5.09806258785879  0.46029729022902  0.74522204260426
 6 -4.32893049834983 -0.74720534093409  0.91206310911091
 6 -2.91195215641564 -0.49947521962196  1.37414285548555
 6 -3.09200949014902  1.06439757225723  1.78617142354235
 6 -4.46931501820182  1.52054243464346  1.23380964216422
 6 -3.08269606060606  1.26576306360636  3.39892341844184
 6 -1.93945822672267 -0.66433044314431  0.14586391219122
 6 -0.46669492349235 -0.37849608100810  0.53835241814181
 6  0.52909228762876 -0.63890732283228 -0.63711536333633
 8  0.17166771647165 -1.15226663046305 -1.62993227352735
 8  1.77812483748375 -0.33278818561856 -0.24419863996400
 7 -7.03743135163516  2.58496990429043  0.41820697749775
 6 -6.05208233923392  3.39437039093909  0.83639162316232
 6 -6.42823081278128  4.80906153655366  0.71636940144014
 6 -7.74926552195219  4.87189707640764  0.45126203320332
 6 -8.13475402860286  3.44637492879288  0.10946128532853
 6 -5.52632841404140  5.91721281258126  1.30485701090109
 6 -8.62163137553755  6.05420048804880  0.26830685258526
 6 -8.18536773457346  7.33221930623062  0.15290102780278
 7 -9.12843787948795  0.58540501880188 -0.56276798209821
 6 -9.90473213221322  1.70705138773877 -0.71967709190919
 6 -11.18844358725873  1.43234422482248 -1.19354410401040
 6 -11.30258877957796  0.06659053635364 -1.25651491769177
 6 -9.97568745244524 -0.41586007410741 -0.97062636553655
 6 -12.33118136023602  2.40700298119812 -1.37490802170217
 6 -12.47393743944394 -0.82202326452645 -1.77296247344735
 6 -12.25261159315932 -0.96006989218922 -3.36952505790579
 7 -7.22277852995300 -1.41184054565457 -0.08312143084308
 6 -8.27754297659766 -2.31697763726373 -0.61632943884388
 6 -7.79413708120812 -3.63006718961896 -0.47526595559556
 6 -6.55422094409441 -3.48489280478048 -0.19163165526553
 6 -6.21347612581258 -2.05396155065507  0.04654627602760
 6 -8.49370971567157 -4.95427824672467 -0.85885543254325
 6 -5.31762830053005 -4.36124210951095  0.25513401330133
 8 -5.06927828962896 -5.54955760936094  0.25599163396340
 6 -4.15159856985699 -3.22128506260626  0.56466735873587
 6 -3.46733109730973 -3.65144122872287  1.84278545824582
 8 -3.59676333093309 -3.15755898869887  2.95632934823482
 8 -2.77970931883188 -4.72930108260826  1.65975406340634
 6 -2.10865350385038 -5.28399886918692  2.87157849484948
 6  2.77638141474147 -0.56834609230923 -1.29024439933993
 6  4.05600892329233 -0.32921677107711 -0.49599212791279
 6  5.12081568896890  0.38664198869887 -0.89813971417142
 6  5.11636905350535  1.21916645294529 -2.18548563966397
 6  6.39109556715672  0.35980478737874 -0.14501118731873
 6  7.61252899179918 -0.04733661556156 -0.91949161786179
 6  8.91187026942694 -0.12264199769977 -0.09637223142314
 6  10.11263215621562 -0.59436653495350 -0.80835723012301
 6  9.99042622882288 -2.03043237813781 -1.35100676217622
 6  11.40613173027303 -0.44126501710171  0.02045224392439
 6  12.69255642464246 -0.43579009490949 -0.72783332313231
 6  13.92843853165317 -0.17784454765477  0.10052726572657
 6  15.29095443944395 -0.26766937863786 -0.54673772407241
 6  15.56413051525153 -1.76923970977098 -0.90713799359936
 6  16.40446370037003  0.30972535863586  0.27089627432743
 6  17.87975367966797  0.52442056785679 -0.27722600250025
 6  18.87606300580058  1.30850269706971  0.70554291599160
 6  20.28111579137914  1.41107685228523  0.29833943754375
 6  20.51372160106011  2.24019966796680 -1.05399122052205
 6  21.12480035413541  2.00942531193119  1.32251895349535
 1 -4.01791204970497  3.59433781548155  1.47804232523252
 1 -10.12419617131713  3.94288187208721 -0.59924422702270
 1 -10.13042230403040 -2.50669072377238 -1.26334988248825
 1 -2.61441013171317 -1.20103976767677  2.14286152475247
 1 -2.11739137713771  1.41407989658966  1.24481884838484
 1 -2.27027075037504  0.87291278027803  3.82745295869587
 1 -3.21106589278928  2.28244770137014  3.63695826332633
 1 -4.05563654485449  0.76516088378838  3.56087997249725
 1 -1.89081160806081 -1.70126604700470 -0.30156514251425
 1 -2.41400560276028 -0.04128203690369 -0.77799290089009
 1 -0.41671876587659  0.77317524102410  1.02506475837584
 1 -0.21683763746375 -0.96924990039004  1.49466234213421
 1 -5.05729789748975  6.43566874197420  0.76688847104710
 1 -6.07246191649165  6.58396819561956  1.98201289048905
 1 -4.76020924972497  5.31816698809881  1.90712439113911
 1 -9.70164766366637  5.79366230233023  0.45541338583858
 1 -8.91733237363736  8.11265985548555  0.09104969826983
 1 -7.10804584118412  7.66985755495550  0.18794432383238
 1 -11.91370678347835  3.01511881718172 -2.06376267466747
 1 -13.27089230273027  2.03950958905891 -1.60045356905691
 1 -12.59882684408441  3.08953203860386 -0.54862636063606
 1 -12.48709123722372 -1.80137253545355 -1.41512172007201
 1 -13.33429943354336 -0.24031784478448 -1.56391374837484
 1 -13.18601906810681 -1.53684492369237 -3.73813681138114
 1 -12.14527470147015  0.14730600470047 -3.83767134213421
 1 -11.41871521912191 -1.48453139713971 -3.57428654415442
 1 -9.00472136803680 -4.82043489178918 -1.78771635303530
 1 -7.70921462246225 -5.79801991019102 -0.98606283438344
 1 -9.10868303410341 -4.97726451345134  0.08436017981798
 1 -3.43274340634063 -3.24437602210221 -0.27548420142014
 1 -1.63230432043204 -4.47707608490849  3.44120080708071
 1 -2.78086327372737 -5.69869051145114  3.55261248334834
 1 -1.37238866536654 -6.09449362646265  2.33032973587359
 1  2.65223989508951 -1.68776846674667 -1.45275935223522
 1  2.48761046124613  0.04860777917792 -2.05810783058306
 1  3.81100032433243 -0.82443044924493  0.52702507870787
 1  4.20254119041904  1.30934203050305 -2.58735207750775
 1  5.60261355975598  2.25808019821982 -1.85904025862586
 1  5.93273859665967  0.76903723392339 -2.81752305160516
 1  6.73913693699370  1.33936016371637  0.07996549424943
 1  6.54322767076708 -0.34486773567357  0.66766777387739
 1  7.53222696479648 -1.01888295999600 -1.56750087878788
 1  7.79745127612761  0.80216709320932 -1.64730487738774
 1  9.04094019121912  0.82321493799380  0.23237720022002
 1  8.79202702550255 -0.71174953035304  0.90374499309931
 1  10.16137784928493 -0.05747098079808 -1.56708053865386
 1  9.06349284568457 -2.30664770907091 -1.90143510471047
 1  10.92062514721472 -2.24200071267127 -2.03336952295230
 1  9.84980245384538 -2.76738836143614 -0.47465955665567
 1  11.29008377057706  0.56389079657966  0.36548851225122
 1  11.43570398009801 -1.15678801690169  0.90839831283128
 1  12.83473920962096 -1.38879574097410 -1.25106344124412
 1  12.89616852285229  0.37540701970197 -1.60681904570457
 1  13.76026752995300  0.69198245374537  0.50551721222122
 1  14.03076916721672 -0.85761819911991  0.85137030673067
 1  15.37579997209721  0.30996085648565 -1.42453211271127
 1  15.45627762876288 -2.29084581048105 -0.03036063366337
 1  14.93125065686569 -2.22711090469047 -1.66085380578058
 1  16.56678473707371 -2.03585751435143 -1.35626773557356
 1  15.99969517921792  1.49245831853185  0.45966938793879
 1  16.54422612461246 -0.17971436713671  1.11333426512651
 1  18.38663785568557 -0.45173213701370 -0.54000000760076
 1  17.77346742794279  0.97636889538954 -1.35691917581758
 1  18.35970465326533  2.22297419701970  1.01412651355136
 1  19.25911218861886  0.64303791509151  1.62918927052705
 1  20.59954002070207  0.37855429122912  0.01026877727773
 1  20.08746557985799  3.23200218511851 -0.82285255475548
 1  21.53876999089909  2.25139101700170 -1.28245949994999
 1  19.68570940414041  1.71893329562956 -1.88576900020002
 1  21.34447446274627  1.56381568536854  2.34933437503750
 1  22.05761040154015  2.23619215041504  0.76553081928193
 1  20.96292882548255  3.11344502070207  1.58665459665967

