%nproc=4
%Mem=2GB
# td=(NStates=1) CAM-B3LYP/6-31G(d,p) 

TD

0 1
12 -7.09127079637964  0.55200344104410  0.05958400700070
 6 -4.73216209730973 -1.83144525582558  0.35340097499750
 6 -4.90504981128113  2.85253958125813  1.31321477867787
 6 -9.45856044484448  3.14416681608161 -0.17034836783678
 6 -9.55546657425743 -1.72906308130813 -0.67088520352035
 7 -5.16504928652865  0.49043030353035  0.85067258765877
 6 -4.30820842614261 -0.60410103050305  0.74290619341934
 6 -2.95011597279728 -0.35273054515452  1.15631107230723
 6 -2.99417970717072  1.09039017151715  1.68982178857886
 6 -4.40842892959296  1.56053643404340  1.28771503270327
 6 -2.81462925392539  1.27517400470047  3.15978950505050
 6 -1.89486376727673 -0.58312232233223 -0.04104477867787
 6 -0.46554480848085 -0.27729596099610  0.38231681458146
 6  0.44698407680768 -0.51129456155616 -0.72252390419042
 8  0.19495004470447 -1.17056846064606 -1.76853613391339
 8  1.78642566756676 -0.33119802660266 -0.33604782488249
 7 -7.10996860536054  2.58005941324132  0.38208336513651
 6 -6.08755588658866  3.33949490339034  0.84869285328533
 6 -6.40525851555156  4.71302193259326  0.86329409390939
 6 -7.72502309770977  4.84492437913791  0.50222712971297
 6 -8.18019857305731  3.45187547884788  0.17198753795380
 6 -5.51003678487849  5.78656974827483  1.39052557775778
 6 -8.62943215561556  6.06888195619562  0.28965898779878
 6 -8.27808700650065  7.29137522182218 -0.05216947924792
 7 -9.09444448014801  0.63474995329533 -0.49339104440444
 6 -9.84299595859586  1.77018770137014 -0.58935405960596
 6 -11.23864860776078  1.43407439783978 -0.92195694529453
 6 -11.33263178387839  0.05780965826583 -1.12411167736774
 6 -9.99264914861486 -0.41784027212721 -0.77901720462046
 6 -12.25841408350835  2.46700898179818 -1.27366789768977
 6 -12.47891793749375 -0.92630369256926 -1.51775695289529
 6 -12.18217454945495 -1.19299318451845 -3.01392949834984
 7 -7.26011226332633 -1.43337269886989 -0.14003712241224
 6 -8.35448067036704 -2.25240117961796 -0.42948075397540
 6 -7.81872954045404 -3.61373555645565 -0.44187261626163
 6 -6.46023154515452 -3.56272058755876 -0.17990048214821
 6 -6.13306808500850 -2.12611876637664  0.01581320272027
 6 -8.67288763346335 -4.79136195509551 -0.74707425442544
 6 -5.28563510121012 -4.29295528082808  0.06696519641964
 8 -5.12212357415742 -5.45158781238124  0.05353138793879
 6 -4.14693810381038 -3.29308224232423  0.47185807780778
 6 -3.52669703390339 -3.59794587918792  1.85462664236424
 8 -3.85599925452545 -3.11779501230123  2.76678039333933
 8 -2.67295864376438 -4.68549670217022  1.66992508050805
 6 -2.31779441794179 -5.18417888718872  2.90712204920492
 6  2.82250602720272 -0.55712497019702 -1.26272164706471
 6  4.10734405680568 -0.42993684308431 -0.58496102480248
 6  5.18740234763476  0.25175850035004 -1.08854875507551
 6  5.14305172177218  1.01664620092009 -2.43061015211521
 6  6.44842129972997  0.30541934883488 -0.25144183038304
 6  7.63118085698570 -0.34189607150715 -1.06480614931493
 6  8.95759484188419 -0.18500823432343 -0.37328992319232
 6  10.23257415041504 -0.62148924722472 -1.05178157255726
 6  10.25596278247825 -2.19508884378438 -1.34945660716072
 6  11.42017313441344 -0.22503339393939 -0.18341814311431
 6  12.80897806680668 -0.39366588248825 -0.81243178297830
 6  13.96480216801680 -0.24200096329633  0.18695590859086
 6  15.35622096609661 -0.33074568626863 -0.42144519481948
 6  15.63507760996100 -1.72827561336134 -0.78926620642064
 6  16.42055530953095  0.35999038513851  0.46658584328433
 6  17.86438214251425  0.43029115491549 -0.03754203410341
 6  18.71233663316332  1.44544639143914  0.77850021172117
 6  20.17876555635564  1.53999974457446  0.48011761536154
 6  20.39556978587859  2.23260890889089 -0.88003382478248
 6  21.07483535763577  2.10296466586659  1.54850155175518
 1 -4.26005626412641  3.62072045374537  1.55499002000200
 1 -10.06584033573357  3.81822940684068 -0.26179048164817
 1 -10.37868713051305 -2.46894694939494 -1.04920846834683
 1 -2.71225991669167 -1.28757842154215  1.91868910751075
 1 -2.21639127712771  1.91991047964796  1.17127149364936
 1 -1.64918864216422  1.08578406740674  3.37798801220122
 1 -2.84195898209821  2.28705816241624  3.43454802230223
 1 -3.44039502070207  0.51868623632363  3.56072995749575
 1 -1.79277180408041 -1.67696361676168 -0.26099108510851
 1 -2.23757795999600  0.28295038633863 -0.86931203280328
 1 -0.37602469646965  0.61301922542254  0.72119437133713
 1 -0.15528148184818 -0.96699967536754  1.18345122102210
 1 -5.08951111881188  6.29087426252625  0.46242802500250
 1 -6.20895556585659  6.52846264506451  1.74054874407441
 1 -4.70487371617162  5.42495766716672  1.95709938863886
 1 -9.71898939783978  5.94134707080708  0.34385222972297
 1 -9.03010365076507  8.27955654515451 -0.16171557825783
 1 -7.22610764736474  7.39129969916992 -0.45619008960896
 1 -12.09197461026103  3.14629193449345 -1.96178247664766
 1 -13.10779599309931  1.90008564666467 -1.67817134083408
 1 -12.97595455685569  2.94527761316132 -0.35679717771777
 1 -12.48920144824482 -1.91647404560456 -1.06225643354335
 1 -13.54929093269327 -0.51017483048305 -1.19455681268127
 1 -12.91721218741874 -1.78932017121712 -3.42085508320832
 1 -12.16209638363836 -0.40991971787179 -3.74205178017802
 1 -11.40463381098110 -1.68268121212121 -3.26502561806181
 1 -9.34370526642664 -4.71269411771177 -1.61625920732073
 1 -8.14586828782878 -5.83985409360936 -0.98644287238724
 1 -9.33138530433043 -4.93305009200920  0.04633637743774
 1 -3.22923305530553 -3.50422200670067 -0.31027768076808
 1 -1.90966205620562 -4.42718109540954  3.60232691969197
 1 -3.39337452485249 -5.56783742614261  3.50811803390339
 1 -1.41558298479848 -5.92647682478248  2.76219292219222
 1  2.71073574467447 -1.66821651155116 -1.68557263356336
 1  2.71624332453245  0.11282420082008 -2.16390841064106
 1  4.09034825912591 -1.12639064526453  0.43190556675668
 1  4.19276021232123  0.87278837513751 -2.74508785108511
 1  5.39624292269227  2.09000339053905 -2.22198655325533
 1  5.92811813461346  0.64918524872487 -3.07689898919892
 1  6.71947497079708  1.47118334603460 -0.30423292559256
 1  6.33449679767977  0.03949070017002  0.90981198829883
 1  7.42661640374037 -1.36454752645265 -1.27916204490449
 1  7.62566409740974 -0.01545466896690 -2.05688583548355
 1  8.96926302350235  0.82859547604760  0.04080804330433
 1  8.83533135593559 -0.92814116951695  0.62124674327433
 1  10.50627233873387  0.15254002030203 -1.96209003960396
 1  9.57288378477848 -2.61317836213621 -2.01739670087009
 1  11.23158624332433 -2.38756526912691 -1.88531471747175
 1  10.46989446304631 -2.65339696229623 -0.44078616931693
 1  11.38577333953395  0.91138554605461  0.33727569096910
 1  11.38320873057306 -0.94995733383338  0.60583805680568
 1  12.95184091979198 -1.24856171757176 -1.46161449634963
 1  12.98277718371837  0.43019249824983 -1.51595995979598
 1  13.70745224842484  0.71017427292729  0.77094375487549
 1  13.91570766106611 -0.98548098539854  1.00584575427543
 1  15.17401979407941  0.31453131353135 -1.33395305480548
 1  15.58841084208421 -2.61478820472047 -0.09197679527953
 1  14.96872440424042 -2.24551274487449 -1.58868658905891
 1  16.54902296089609 -1.82063599219922 -1.35543765256526
 1  16.02101731143114  1.47399647234723  0.47845126612661
 1  16.13314501650165 -0.03940033573357  1.52753568526853
 1  18.32475166706671 -0.58555551935194 -0.18820482808281
 1  17.72677275847585  0.70396165466547 -1.01836532043204
 1  18.45091377417742  2.51693359295930  0.94055915681568
 1  18.60139641704170  0.98727233853385  1.92941929352935
 1  20.49696976367636  0.40600703650365  0.28930668106811
 1  20.33403023632363  3.42756174107411 -0.69340961046105
 1  21.55098121202120  2.16450232813281 -1.22746400040004
 1  19.63845467866787  2.01166256855686 -1.62752317561756
 1  20.75392540784079  1.63613291709171  2.56072551415141
 1  22.12438707920792  1.95650418161816  1.38197246344634
 1  20.86492902550255  3.15468914511451  1.54554048524852

