%nproc=4
%Mem=2GB
# td=(NStates=1) CAM-B3LYP/6-31G(d,p) 

TD

0 1
12 -7.10626229552955  0.58604684538454  0.04441248984898
 6 -4.83668254935494 -1.92654476577658  0.47963359825983
 6 -4.76784609090909  2.75602993029303  1.09044250145015
 6 -9.41781637043704  3.18636103550355 -0.30249158215822
 6 -9.52534356195619 -1.65785596059606 -0.96011412641264
 7 -5.08055083668367  0.38891015151515  0.72847036743674
 6 -4.22959056435644 -0.76463708410841  0.83226512931293
 6 -2.87994895609561 -0.45486075817582  1.27307274847485
 6 -3.02096238543854  0.93302443494349  1.72151495789579
 6 -4.39171725842584  1.48104848524853  1.11003726492649
 6 -3.05227301830183  1.13256974427443  3.15534906100610
 6 -1.90253453435344 -0.66058006810681  0.18286761256126
 6 -0.43743199719972 -0.50338857025703  0.66601518441844
 6  0.50007938633863 -0.65825925802580 -0.50033168496850
 8  0.15020557025703 -0.89677108090809 -1.71394067436744
 8  1.79541656665667 -0.46300120692069 -0.15675989608961
 7 -7.08288589708971  2.60865227252725  0.36206136293629
 6 -6.00337746874687  3.34974592849285  0.76549453345335
 6 -6.39523751345135  4.77190782118212  0.79234699919992
 6 -7.67492808820882  4.85726561326133  0.45416232323232
 6 -8.05584613781378  3.47646793809381  0.09479981918192
 6 -5.45278105930593  5.75296638793879  1.34548107330733
 6 -8.62853206560656  6.04431949994999  0.40192021392139
 6 -8.30581977977798  7.23790987528753 -0.06533079537954
 7 -9.12312734843484  0.71723820212021 -0.59251095639564
 6 -9.90039169816982  1.87358804140414 -0.60729585378538
 6 -11.18495323822382  1.47293828422842 -1.07550229982998
 6 -11.27262578327833  0.14405828312831 -1.27174644084408
 6 -9.92298218191819 -0.38715720382038 -0.94862416531653
 6 -12.43313155525553  2.40311259215922 -1.22228275917592
 6 -12.51876192189219 -0.52729379157916 -1.76140131733173
 6 -12.36788312031203 -0.98818270347035 -3.25611371677168
 7 -7.17139339143914 -1.44366372797280 -0.11946506520652
 6 -8.29300452275228 -2.22846878637864 -0.46727453335334
 6 -7.85335300280028 -3.62179636253625 -0.45175360436044
 6 -6.48404392639264 -3.50943525902590 -0.06293878597860
 6 -6.15834061226123 -2.23870002450245  0.17219884128413
 6 -8.63570391509151 -4.85553837273727 -0.93752329932993
 6 -5.36650318801880 -4.36888287358736  0.14923342324232
 8 -5.24721608340834 -5.54505715931593  0.12096813161316
 6 -4.18784219421942 -3.32124505860586  0.48750964296430
 6 -3.64394875907591 -3.69749583418342  1.91035221492149
 8 -3.85606926152615 -3.20460369316932  2.99117283258326
 8 -2.75783713161316 -4.82934108660866  1.76566465446545
 6 -2.24397703620362 -5.28144861416142  2.98223956095610
 6  2.74227800440044 -0.68948820652065 -1.17476285118512
 6  4.17124044644464 -0.49475332473247 -0.64102663136314
 6  5.08687229462946  0.34091741624162 -1.03541344154415
 6  5.08944636123612  1.06189072537254 -2.43583067416742
 6  6.37591404900490  0.37874668156816 -0.16543322952295
 6  7.66766450535054 -0.05788767066707 -1.02060172887289
 6  8.79137822022202 -0.17511724522452 -0.12880547474747
 6  10.20910180318032 -0.54296139443944 -0.88067446184618
 6  10.19361654785479 -2.01566090099010 -1.40772243374337
 6  11.39565068216822 -0.24533542414241  0.05488568726873
 6  12.75820298929893 -0.47362387828783 -0.62756329612961
 6  13.96226191399140  0.07874111091109  0.26534374737474
 6  15.35772111611161 -0.02492510421042 -0.40045309560956
 6  15.63297739993999 -1.50381316711671 -0.75943322312231
 6  16.40758401240124  0.42521690779078  0.55777496219622
 6  17.81914761906191  0.50978910471047 -0.11467974787479
 6  18.85896129562956  1.32083393019302  0.68349071077108
 6  20.30230791059106  1.40018576317632  0.11192079567957
 6  20.48414864376437  2.19167481548155 -1.08986480788079
 6  21.31496937103710  1.83765813521352  1.18528523012301
 1 -4.09470972947295  3.54755313701370  1.39654417541754
 1 -10.05395914761476  4.05981356525653 -0.26917121972197
 1 -10.13466272807281 -2.35852590729073 -1.44412796029603
 1 -2.53613230393039 -1.13831349504951  2.15540277887789
 1 -2.16307594559456  1.40819930853085  1.16447081358136
 1 -2.00222394569457  0.95727121612161  3.67150736413641
 1 -3.24293908010801  2.23802325892589  3.60822539003900
 1 -3.60049103030303  0.45289965766577  3.79554343884388
 1 -1.73169569646965 -1.67209312971297 -0.38021300730073
 1 -1.91707590979098  0.06832892419242 -0.56170127172717
 1 -0.33616071007101  0.41103902740274  1.26578883078308
 1 -0.05815176887689 -1.33962693809381  1.22890576647665
 1 -4.58185035273527  6.03538871397140  0.83920570277028
 1 -5.96512118241824  6.59969976877688  1.61006569576958
 1 -4.83153638243824  5.48432360376038  2.08255193389339
 1 -9.58796629552955  5.80192312841284  0.67425527002700
 1 -9.10484112451245  7.97859644914491 -0.22051145784578
 1 -7.36206124272427  7.63077364656466 -0.56763123372337
 1 -12.25146055885589  3.19947725302530 -2.09389568796880
 1 -13.22486770027003  1.71076671477148 -1.39892341604160
 1 -12.31150811221122  2.99273235863586 -0.37239873787379
 1 -12.62389491759176 -1.51987438563856 -1.26663687158716
 1 -13.42952895649565 -0.05978979197920 -1.42721007800780
 1 -13.17490795699570 -1.50203144234423 -3.56211920962096
 1 -12.20504067806781 -0.00788951485149 -3.92053962896290
 1 -11.43730707830783 -1.65890883488349 -3.20300941644164
 1 -8.95195609150915 -4.69406225452545 -1.90860844224422
 1 -8.03544724572457 -5.63880398859886 -0.87256148424842
 1 -9.59606177197720 -5.35378216521652 -0.36196445264526
 1 -3.49126925892589 -3.54756634113411 -0.27253390639064
 1 -1.51251234123412 -4.68215659295930  3.32759944694469
 1 -3.06460164756476 -5.28665930833083  3.66682390449045
 1 -1.79657108360836 -6.25759993709371  2.78905560846085
 1  2.54757942904290 -1.78175786568657 -1.48853292959296
 1  2.69630133033303 -0.19261634323432 -2.00466248604860
 1  4.34500372467247 -0.96527453365337  0.29588196439644
 1  4.09506044234423  0.97834893119312 -2.79575291759176
 1  5.46136943534353  2.16776116631663 -2.33068742334233
 1  5.53232855565556  0.57273760396040 -3.23652495179518
 1  6.28127115041504  1.52225845354535  0.09995749344935
 1  6.30105345334533 -0.24936818571857  0.66126713381338
 1  7.41928567066707 -0.90847191889189 -1.64968909760976
 1  7.75124665566557  0.91391826832683 -1.72793294019402
 1  8.98560465766577  0.73598621512151  0.49121308380838
 1  8.71877970077008 -0.89743809920992  0.82459707830783
 1  10.21765347684769  0.17987275357536 -1.55853968456846
 1  9.32249874627463 -2.31897894219422 -2.13549851105111
 1  11.14198728342834 -2.23410992359236 -2.09525571157116
 1  10.26318379197920 -2.68976059865987 -0.78908099879988
 1  11.25552031423142  0.67296170367037  0.38417038043804
 1  11.38579898959896 -0.76994933303330  0.80619809280928
 1  12.84124986068607 -1.57856471787179 -0.94651298619862
 1  12.91452035803581  0.04260373937394 -1.78547691149115
 1  13.91355285848585  1.12778603410341  0.43839049954996
 1  13.86198228852885 -0.48514095139514  1.09055422512251
 1  15.47484987708771  0.44218407880788 -1.33535319481948
 1  15.57968996999700 -2.15452217811781  0.16616901930193
 1  15.12404993679368 -1.72191038463846 -1.94671239163916
 1  16.66304436303631 -1.58230215881588 -1.11429353815382
 1  16.25346055575557  1.32025109780978  0.97777119811981
 1  16.36695839783978 -0.36127252295230  1.50691362306231
 1  18.04645383728373 -0.57383434723472 -0.17927393499350
 1  17.77449753095310  0.84046530503050 -1.10286377027703
 1  18.54772345514551  2.21473337293729  0.74738983988399
 1  19.05094137153715  0.86470008130813  1.66210256185619
 1  20.49563963066306  0.39383581938194 -0.27612986258626
 1  20.26334316761676  3.30616960186019 -1.19294956445645
 1  21.44565067896790  2.30401627952795 -1.44439569356936
 1  19.71465229842984  2.01899330163016 -1.84745516881688
 1  21.05702571787179  1.35033433723372  2.12670211181118
 1  22.34127876837684  1.96987551875188  1.00128439463946
 1  21.26662919551955  2.90317399359936  1.32462839403940

