%nproc=4
%Mem=2GB
# td=(NStates=1) CAM-B3LYP/6-31G(d,p) 

TD

0 1
12 -7.13642531183118  0.57561580228023  0.21571962056206
 6 -4.90097897899790 -1.95479759105911  0.50355599049905
 6 -4.75799510581058  2.93979830713071  1.12695615281528
 6 -9.42847743654365  3.09621202060206 -0.29202053505351
 6 -9.57885891349135 -1.75806598159816 -0.74096221122112
 7 -5.11479426102610  0.45692695319532  0.66018353875388
 6 -4.36564416971697 -0.70002062246225  0.77784968776878
 6 -2.93794475567557 -0.35929120122012  1.21720716191619
 6 -2.94369465866587  1.10248138063806  1.57961076747675
 6 -4.38780686738674  1.58384876527653  1.12123838503850
 6 -2.96153394439444  1.38731521882188  3.23080660676068
 6 -2.05631991289129 -0.59120313041304  0.05699502530253
 6 -0.54063231723172 -0.47126535793579  0.47222580548055
 6  0.45767514591459 -0.77437086918692 -0.60875252705271
 8  0.22433298299830 -1.10879228302830 -1.72338161846185
 8  1.75888291329133 -0.54717962476248 -0.23405762586259
 7 -7.11024863336334  2.64411581888189  0.41386654345435
 6 -6.01659879087909  3.44717567146715  0.82425040904090
 6 -6.39699768946895  4.83782441284128  0.84343210771077
 6 -7.73265386078608  4.83490337703770  0.46022292929293
 6 -8.17243779697970  3.51616190749075  0.22766310551055
 6 -5.61416719791979  5.96677776907691  1.30100662586259
 6 -8.60544975737574  5.97695276327633  0.41532155405541
 6 -8.25554475227523  7.31666775107511  0.32923866156616
 7 -9.12764780048005  0.62753923222322 -0.39963166846685
 6 -9.87262892189219  1.76485716831683 -0.46887201140114
 6 -11.16918166106611  1.48362935333533 -1.11322607220722
 6 -11.15780430113011  0.07758163546355 -1.38581784798480
 6 -9.97568745244524 -0.42852134023402 -0.80510981388139
 6 -12.16743498559856  2.44623690459046 -1.58053858475848
 6 -12.27677772347235 -0.82468353055306 -1.92707788498850
 6 -12.16163249524953 -1.06673055825583 -3.45537364276428
 7 -7.26097234933493 -1.41336069766977  0.01071795309531
 6 -8.22093731603160 -2.26003194269427 -0.44572237813781
 6 -7.80377804530453 -3.66362054495450 -0.53024145314531
 6 -6.43775929792979 -3.52468678417842 -0.21667415951595
 6 -6.26305108330833 -2.20908706320632  0.04420604200420
 6 -8.55498584328433 -4.86140895979598 -0.96559610661066
 6 -5.20169670737074 -4.28818480378038  0.18255675557556
 8 -5.06573793559356 -5.45603825742574  0.29719575437544
 6 -4.10768417841784 -3.23844677877788  0.51972286428643
 6 -3.52917728192819 -3.72546863146315  1.89536071577158
 8 -3.75105876047605 -3.23548678147815  2.96186990229023
 8 -2.63046439433943 -4.77483563606361  1.73919200720072
 6 -2.06975961446145 -5.27740821012101  2.91579291629163
 6  2.81159493609361 -0.73942320002000 -1.21924729962996
 6  4.16259958235824 -0.47810165956596 -0.57548007670767
 6  5.06784039143914  0.39761308580858 -0.97230713091309
 6  5.01901931853185  1.23475801210121 -2.21947903900390
 6  6.38426488408841  0.48349715661566 -0.28010469666967
 6  7.57592533143314 -0.16571845374537 -0.87215688438844
 6  8.91538062046205 -0.12231196469647 -0.10766336053605
 6  10.21070196319632 -0.62424952325233 -0.88292468686869
 6  10.11880906710671 -2.11024035893589 -1.26938860036004
 6  11.32399351645165 -0.33830472107211 -0.00111991329133
 6  12.70714788378838 -0.49382589848985 -0.62626316611661
 6  13.93793948174818 -0.09778654185419  0.15029224222422
 6  15.30305564956496 -0.23665627732773 -0.38669171947195
 6  15.69268337053705 -1.64777756355636 -0.79404668446845
 6  16.45088834283428  0.37550193629363  0.52158134283428
 6  17.76096180048005  0.48999712551255 -0.18388666856686
 6  18.81619701920192  1.21185303210321  0.59751211291129
 6  20.21653933373337  1.35981172577258  0.08792839643964
 6  20.20714094299430  2.31464711271127 -1.11514733613361
 6  21.09684755885589  2.05316968636864  1.25880258185819
 1 -3.95758601710171  3.57769615131513  1.52658717971797
 1 -10.36005975767577  3.78368595249525 -0.09300360296030
 1 -10.47791705350535 -2.36442649734974 -1.06143969146915
 1 -2.45750444114411 -0.78769843354335  1.95830306890689
 1 -2.24295393339334  1.61646013461346  1.01213558005801
 1 -2.00177390069007  1.02905839483948  3.56865707910791
 1 -3.03791857805781  2.49999945654565  3.38825339283928
 1 -3.83815479667967  0.96555092279228  3.77440132463246
 1 -2.39476200310031 -1.47170309070907 -0.52936792279228
 1 -2.30837503970397  0.33643573487349 -0.65424052565257
 1 -0.17917501150115  0.35184310781078  0.93574582648265
 1 -0.43659961366137 -1.21743471887189  1.36665954185419
 1 -5.11509367706771  6.46712188728873  0.40236201840184
 1 -6.32655732603260  6.79501930073007  1.69654434363436
 1 -4.82922615141514  5.59982515391539  1.97045072377238
 1 -9.67680517941794  5.98566150225022  0.76374421892189
 1 -8.99380002040204  8.17799638913891  0.25546613991399
 1 -7.21112614921492  7.44371494069407  0.28314384378438
 1 -11.58418383118312  3.27269457475748 -2.34457075547555
 1 -13.07443265676567  2.03895953405341 -2.02430595429543
 1 -12.21669863126313  3.12422550795080 -0.78664016201620
 1 -12.42032456055606 -1.69243164136414 -1.34860506840684
 1 -13.24467047064707 -0.37972178517852 -1.77182453945395
 1 -13.16009647584758 -1.68954019321932 -3.81191418911891
 1 -12.14085425942594 -0.14488321422142 -3.96658423342334
 1 -11.34160750835083 -1.76936988098810 -3.54453356885689
 1 -8.84233512941294 -4.65972882118212 -2.12806038743874
 1 -7.96715041604160 -5.82871297949795 -0.92542677077708
 1 -9.55861802760276 -5.06068285528553 -0.42303055925593
 1 -3.38393852585259 -3.19873145764576 -0.31890854385439
 1 -1.45575666566657 -4.60912929022902  3.37404409140914
 1 -2.79063425082508 -5.59652029442944  3.59247646974697
 1 -1.41601302780278 -6.19415359245925  2.56942364526453
 1  2.73138780988099 -1.99766945684568 -1.49043311961196
 1  2.57167886808681 -0.23559064066407 -2.03709572937294
 1  4.15544476877688 -0.77700570677068  0.38396077227723
 1  3.98158909520952  1.47278837513751 -2.79813315561556
 1  5.40636393479348  2.22487687788779 -1.96765111971197
 1  5.67139246204620  1.00225055525553 -3.23566486578658
 1  6.64484750805080  1.36626285398540 -0.01190369266927
 1  6.29100244824482 -0.03810705960596  0.66802780988099
 1  7.44046778887889 -1.19994106580658 -1.24336846554655
 1  7.68362989398940  0.21719859635964 -1.96078622552255
 1  9.17359345654565  0.98861147764777 -0.04577061456146
 1  8.67622544534454 -0.55681403680368  0.92437705630563
 1  10.08794050555056 -0.12533776747675 -1.92715654625463
 1  8.98104460086009 -2.33781082538254 -1.64159912111211
 1  10.85469855455545 -2.29107562016202 -2.11486767276728
 1  10.38557603120312 -2.84155577817782 -0.36533862456246
 1  11.34003876607661  0.71634604210421  0.33227519091909
 1  11.13766417611761 -1.00885322342234  0.87058453145315
 1  12.79542527822782 -1.68285514691469 -0.99432776767677
 1  13.00379928592859 -0.03992451345134 -1.59117748154815
 1  13.88252975617562  0.94087734323432  0.56593325382538
 1  14.15441153145314 -0.61547398469847  1.12680785048505
 1  15.40133252535253  0.51251111151115 -1.26217587708771
 1  15.92310431143114 -2.24607133303330  0.20461286368637
 1  14.86138367016702 -2.13793198679868 -1.21106882728273
 1  16.55446350495050 -1.63335726432643 -1.74889699849985
 1  16.05431064076408  1.50731980468047  0.97023044404440
 1  16.67323902590259 -0.16149254495450  1.24291722342234
 1  17.98741793369337 -0.53979094289429 -0.38213422102210
 1  17.58666874807481  0.85427668616862 -1.03419690359036
 1  18.38285696849685  2.17336923652365  0.94477957885789
 1  18.84322059945994  0.66389000030003  1.46332268386839
 1  20.45620568726872  0.29742617841784 -0.22558480808081
 1  19.70105693899390  3.23927291219122 -0.77106737623762
 1  21.36251236513651  2.20986686458646 -1.65319657365737
 1  19.77720855405540  1.80974237653765 -1.91636205950595
 1  21.08623863916392  1.32548185198520  2.04066350795080
 1  22.11216585708571  2.06189472067207  1.02665693189319
 1  20.52511504410441  2.89636331253125  1.66110204140414

