%nproc=4
%Mem=2GB
# td=(NStates=1) CAM-B3LYP/6-31G(d,p) 

TD

0 1
12 -7.25213688298830  0.57678591929193  0.07007505610561
 6 -4.76407528862886 -1.86719883118312  0.47651328622862
 6 -4.78222752905291  2.87349167646765  1.22766622382238
 6 -9.32767735653565  3.12765516491649 -0.38157949094909
 6 -9.61159218681868 -1.80874104910491 -0.91058917391739
 7 -5.09189197079708  0.50292155265527  0.76113363376338
 6 -4.31824943024302 -0.64217483788379  0.86569847264726
 6 -2.88153911511151 -0.46430170227023  1.29936537773777
 6 -2.94822511171117  1.09270040254025  1.76696950335033
 6 -4.31242932963296  1.49024940534053  1.14651091229123
 6 -2.88640643164316  1.13725021232123  3.32309583568357
 6 -2.00606488738874 -0.58726273637364  0.05690501630163
 6 -0.57184543854385 -0.40679891129113  0.41941052395240
 6  0.43231260966097 -0.65029846194619 -0.67296894869487
 8  0.13949449914991 -0.99762116591659 -1.79346862716272
 8  1.78606563156316 -0.36301120792079 -0.27415163526353
 7 -7.10513812231223  2.61886329362936  0.36637179397940
 6 -6.08491562256226  3.33717467136714  0.81526951095110
 6 -6.50278826852685  4.72034266466647  0.97085484998500
 6 -7.76590718611861  4.79614950165017  0.39896680368037
 6 -8.14283483668367  3.39361965326533  0.12281262046205
 6 -5.53243902510251  5.87458855015502  1.38724524972497
 6 -8.65178439083908  5.94900996899690  0.30526054795480
 6 -8.25730492829283  7.31037712201220  0.08447418511851
 7 -9.14073910961096  0.62465894419442 -0.42900460576058
 6 -9.83967562656266  1.76434711731173 -0.54642976717672
 6 -11.24493923682368  1.42307329772977 -1.00824557415742
 6 -11.18054657535754  0.02070594789479 -1.11345061126113
 6 -9.94002388608861 -0.43564205230523 -0.81124042694269
 6 -12.38252649474948  2.36712899379938 -1.44832536343634
 6 -12.37579762546255 -0.86902796499650 -1.54793997119712
 6 -12.31523785578558 -1.16189007420742 -3.12796090149015
 7 -7.21148740084008 -1.39351871347135 -0.18103122182218
 6 -8.27303252555256 -2.24356029552955 -0.60340814671467
 6 -7.80213788128813 -3.61137532043204 -0.62811124012401
 6 -6.54829035103510 -3.50263457895790 -0.27598009010901
 6 -6.16907168536854 -2.12547870237024  0.05909753115312
 6 -8.50007035173517 -4.87973079197920 -1.01269081608161
 6 -5.37124366206621 -4.32760874617462  0.13231173107311
 8 -5.23759512131213 -5.49744239783978  0.11635767056706
 6 -4.15708911891189 -3.27231016511651  0.49203009500950
 6 -3.61051541574157 -3.65917200180018  1.90369154885489
 8 -3.80659431403140 -3.05311854465447  2.94535825112511
 8 -2.84304565246525 -4.78168632113211  1.83203129112911
 6 -2.22255489398940 -5.11102157145715  3.06896823382338
 6  2.71909568616862 -0.63623288098810 -1.33242861776178
 6  4.15298862126213 -0.59887373677368 -0.70878340704070
 6  5.09156276367637  0.32125545004500 -1.05712561276128
 6  5.01004842144214  1.29555409170917 -2.24621171227123
 6  6.40049650725072  0.36228503540354 -0.24178086428643
 6  7.64897263616362 -0.03017489938994 -1.10317998669867
 6  9.02090117251725 -0.03403313681368 -0.08190078427843
 6  10.16387728072807 -0.41920901920192 -0.90016641104110
 6  10.15274246044605 -1.85142447734773 -1.34585624712471
 6  11.45617673477348 -0.08877976857686 -0.02489229052905
 6  12.87493466246625 -0.43478999489949 -0.55054559435944
 6  14.01838752655266 -0.19800656385639  0.35187240024002
 6  15.39400474447445 -0.22787539923992 -0.31321437173717
 6  15.66421052325233 -1.72681546734673 -0.79628690849085
 6  16.50394364836484  0.36755114121412  0.59597878257826
 6  17.84816052035204  0.44386251205121 -0.10769904980498
 6  18.86391179067907  1.29362120892089  0.80384274597460
 6  20.32592027182718  1.29804554915492  0.18577818141814
 6  20.32636286518652  1.91831747974797 -1.28641446284629
 6  21.32967084118412  2.02780715011501  1.17621432303230
 1 -4.14778503700370  3.55686406810681  1.78214273527353
 1 -9.94653840554055  3.86641422532253 -0.51372567516752
 1 -10.45833509530953 -2.47802785748575 -1.36768031553155
 1 -2.19797848854885 -1.31401106480648  2.03589082768277
 1 -2.17302694069407  1.73060154875488  1.32326669316932
 1 -1.85338906220622  0.69619510851085  3.50223043644364
 1 -3.19292407860786  2.12155161176118  3.65827039453945
 1 -3.66288726992699  0.65910027772777  3.75046893139314
 1 -1.98511103800380 -1.60422634303430 -0.29756474247425
 1 -2.34191839403940  0.15190728202820 -0.68664376597660
 1 -0.53200029402940  0.47098502200220  1.08457070897090
 1 -0.24037999169917 -1.09755273067307  1.28363123902390
 1 -4.92448461616162  6.10862603770377  0.67328911111111
 1 -6.16272094239424  6.61567136593659  1.92396708590859
 1 -4.92497572637264  5.23165833723372  2.03552723142314
 1 -9.71777927682768  5.67597053315332  0.16028387288729
 1 -8.85870651105111  8.17621621112111  0.11087168046805
 1 -7.10723576017602  7.64236480568057 -0.08353282388239
 1 -11.74758017081708  3.22795010031003 -2.12954925332533
 1 -13.18057327082708  1.82146778487849 -1.95076860056006
 1 -13.18625558695870  2.96027911331133 -0.61222272027203
 1 -12.21857438553855 -1.73531592979298 -0.75759596749675
 1 -13.38068407200720 -0.39079289228923 -1.39276663366337
 1 -13.12646311251125 -1.84569580878088 -3.38077107480748
 1 -12.67048722272227  0.00313158725873 -3.81672924792479
 1 -11.41112446004600 -1.50721366536654 -3.62504161966197
 1 -8.72282317821782 -4.83998684698470 -2.15628320972097
 1 -7.69367306830683 -5.74600470867087 -0.79590381848185
 1 -9.32888505430543 -4.99731651865186 -0.56142439863986
 1 -3.44292442444244 -3.47971955645565 -0.23008966196620
 1 -1.58612970297030 -4.22525090239024  3.52601928892889
 1 -3.09407459485949 -5.28352899529953  3.96058328042804
 1 -1.70042146864686 -6.03117729482948  2.96981368426843
 1  2.67803247434744 -1.86658634853485 -1.50170424672467
 1  2.89695139533953  0.03296621502150 -2.25202722252225
 1  4.53864308860886 -1.25989399559956  0.19482185838584
 1  4.12092302860286  1.31905300160016 -2.90290363266327
 1  5.08958225662566  2.34391878207821 -1.83181753635363
 1  5.97427275007501  0.87104743494349 -3.04511581088109
 1  6.36634965826583  1.37778400610061  0.25255275297530
 1  6.08669201720172 -0.15448869776978  0.70350135723572
 1  7.66859060116012 -1.15025609730973 -1.67488161686169
 1  7.83333486448645  0.69767664416442 -2.03244339123912
 1  9.03225932313231  0.85715833233323  0.13021698419842
 1  8.72687050985098 -0.56837519291929  0.61754637323732
 1  10.28650036153615  0.26319108540854 -1.69085291589159
 1  9.25691218761876 -1.97543458775878 -1.95869083028303
 1  10.88579166386639 -2.13527003960396 -2.25746193219322
 1  10.00268774237424 -2.73447507010701 -0.45908799949995
 1  11.49733449564956  1.03695810331033  0.45745770917092
 1  11.13146355605561 -0.80596293439344  0.86584405740574
 1  12.83228896459646 -1.42666952835284 -0.77623595849585
 1  13.05883478947895  0.18158763776378 -1.40555891969197
 1  14.10421192439244  0.82922617811781  0.81781844234423
 1  14.04054014431443 -0.88503094039404  1.23288845854585
 1  15.34845723782378  0.33972383278328 -1.19981964146415
 1  15.72313431443144 -2.64853157905790 -0.12031962956296
 1  14.88962649444944 -1.96880507410741 -1.77520524092409
 1  16.69370742934294 -1.81395532413241 -1.21633374217422
 1  16.33149835953595  1.38058713141314  0.95453887488749
 1  16.65735743774378 -0.29263565926593  1.39256218791879
 1  18.42485167706771 -0.60264722852285 -0.15930193779378
 1  17.72666274747475  0.91232249074908 -1.09448293219322
 1  18.76639532233223  2.31093299289929  0.86764186508651
 1  18.72467874527453  0.96134974627463  1.88239459105911
 1  20.70619068576858  0.23531996779678  0.08997674807481
 1  20.09218605190519  3.04575356025603 -0.86776704620462
 1  21.47543365726573  1.66357223512351 -1.74300555455546
 1  19.67832866606661  1.54705610791079 -1.87921834513451
 1  20.95293530883088  1.58887819161916  2.30338978057806
 1  22.44631927242724  1.80049858105811  0.80585485168517
 1  20.91920445304530  3.10336401260126  1.09648557975798

