%nproc=4
%Mem=2GB
# td=(NStates=1) CAM-B3LYP/6-31G(d,p) 

TD

0 1
12 -7.12060372967297  0.57175541624162  0.10316836543654
 6 -4.85379426052605 -1.91962407370737  0.54528016291629
 6 -4.86434574087409  2.88162248954895  1.28284174137414
 6 -9.53245783458346  3.06661906130613 -0.38634996799680
 6 -9.52256328392839 -1.82410258525853 -0.88355647064706
 7 -5.13162594419442  0.49758101860186  0.77628514891489
 6 -4.34732233753375 -0.63870449084908  0.81876377917792
 6 -2.95576653785379 -0.37427269936994  1.24986042724272
 6 -3.09356964616462  1.10019115161516  1.74192699909991
 6 -4.42380046674667  1.60422080248025  1.27448370957096
 6 -2.81468925992599  1.33304979227923  3.32066559265927
 6 -1.94536881778178 -0.52815682578258  0.09172849864986
 6 -0.47864611861186 -0.53427165856586  0.55611419431943
 6  0.52419179757976 -0.57207063916392 -0.57376902870287
 8  0.19806035573557 -0.81626303010301 -1.68077735803580
 8  1.83918094309431 -0.29577448424842 -0.12561678177818
 7 -7.25989359785979  2.65038644594459  0.40613577037704
 6 -6.13577070807081  3.34892584648465  0.89346733073307
 6 -6.50041803150315  4.67606823722372  0.87388515301530
 6 -7.80961155655566  4.79911979867987  0.42908981598160
 6 -8.27510806400640  3.48776906820682  0.05467580678068
 6 -5.60728650985098  5.78758985028503  1.39873639883988
 6 -8.63126233863386  6.12030709870987  0.10164018591859
 6 -8.02017121492149  7.34054013831383  0.14327006470647
 7 -9.13413844954495  0.58360483878388 -0.49126083138314
 6 -9.93601526052605  1.79273995659566 -0.62268739293929
 6 -11.26362110501050  1.38569956035604 -1.04062881248125
 6 -11.33191171187119 -0.02884900760076 -1.19248851505150
 6 -9.98343822752275 -0.47328581668167 -0.82572187508751
 6 -12.34692293439344  2.29199148004800 -1.34245477637764
 6 -12.39948999469947 -0.79735079727973 -1.81607678487849
 6 -12.11529786178618 -1.31092497769777 -3.33943204860486
 7 -7.21092734483448 -1.39835919751975 -0.12724584328433
 6 -8.30857607990799 -2.22143808330833 -0.51442924882488
 6 -7.78893656115611 -3.63293747664766 -0.54191262026203
 6 -6.47660318231823 -3.56084039953995 -0.25275776787679
 6 -6.13514829302930 -2.17993414791479  0.14334595599560
 6 -8.58687903260326 -4.79729254815482 -0.71256080308031
 6 -5.33980051775178 -4.35646163146315  0.17587608750875
 8 -5.17527888968897 -5.57557021062106  0.11890792559256
 6 -4.15339874987499 -3.28609154325432  0.57548844084408
 6 -3.56400076427643 -3.63834991959196  1.84689586928693
 8 -3.69101275587559 -3.00178341114111  2.89795351065107
 8 -2.69551089898990 -4.67141529402940  1.72628071607161
 6 -2.20769340784078 -5.19663013231323  2.94701603860386
 6  2.75447922452245 -0.61614087178718 -1.16493186808681
 6  4.21634495689569 -0.46752060146015 -0.67163969266927
 6  5.18750235763576  0.31969529402940 -1.10713061326133
 6  5.06437385398540  1.30825536183618 -2.19394648574857
 6  6.44845130273027  0.30697950485048 -0.21007769396940
 6  7.69448718761876 -0.13607548944894 -1.08294796349635
 6  8.99042812521252 -0.18716845034503 -0.26011860606061
 6  10.20644153715372 -0.52362946124612 -0.99768616301630
 6  10.13915110131013 -1.91396073097310 -1.67812947444744
 6  11.28333945104511 -0.36814770537054 -0.14815461676168
 6  12.76464363336334 -0.67049356525653 -0.73677421722172
 6  13.99240492829283 -0.12720948414841  0.13818103110311
 6  15.40234557855786 -0.21467407910791 -0.51233428372837
 6  15.78172227442744 -1.64016680248025 -0.73436071587159
 6  16.44120737473747  0.49209359545955  0.39514869956996
 6  17.83552925722572  0.53452157795780 -0.10926920682068
 6  18.78342374187419  1.28001984878488  0.88716107780778
 6  20.17429510931093  1.40162590719072  0.27546715031503
 6  20.28568879777978  2.20005565356536 -0.95463128452845
 6  21.24032190629063  1.67266163556356  1.36406310791079
 1 -4.18840909940994  3.60988937063706  1.69821434243424
 1 -10.21190494219422  3.85183276717672 -0.69027332993299
 1 -10.48430769256926 -2.54475453015302 -1.08579212671267
 1 -2.79114780548055 -0.97818748244824  2.09455669426943
 1 -2.22568220622062  1.96040452905290  1.41867623412341
 1 -1.88809253255326  0.68798428742874  3.74234444784478
 1 -2.62531731793179  2.42860231683168  3.55248981648165
 1 -3.77971895309531  1.00774514221422  3.90097398189819
 1 -2.16836936383638 -1.59764568496850 -0.43297828382838
 1 -2.13857806000600  0.44147623892389 -0.73417851945195
 1 -0.32325941994199  0.53431135463546  1.03590584248425
 1 -0.15387134083408 -1.21121409680968  1.38256113201320
 1 -5.16848901660166  6.10645582068207  0.52317409960996
 1 -6.21753642394239  6.59907970677068  1.69421411061106
 1 -4.84507773657366  5.57903307470747  2.16736041474147
 1 -9.67240473937394  5.86691962806281  0.19763760826083
 1 -8.74834547494749  8.21741033053305  0.08690928422842
 1 -7.02537757435744  7.56880744994499  0.01690722012201
 1 -11.87825323812381  3.08653595889589 -1.83082938133813
 1 -13.14245945944594  1.77849348744875 -2.05478900260026
 1 -12.97683464486449  2.77134021942194 -0.37534903290329
 1 -12.49920244834483 -1.62372477067707 -1.11325153305330
 1 -13.45632163576358 -0.25202901590159 -2.00551790879088
 1 -13.06548701490149 -2.07838907810781 -3.55135813351335
 1 -12.09639981398140 -0.52003072897290 -3.95932350735074
 1 -11.05381872947295 -1.75317826182618 -3.56663577907791
 1 -9.07070796669667 -4.87766061436144 -1.72443002440244
 1 -7.95944964596460 -5.64009411761176 -0.96814104220422
 1 -9.37637980378038 -5.03467025402540  0.12686443024302
 1 -3.52814294629463 -3.43087467196720 -0.43536018901890
 1 -1.61537262726273 -4.33020139743974  3.41195788278828
 1 -2.88835402280228 -5.43846448884888  3.92853007510751
 1 -1.60914234073407 -5.96500067716772  2.82172887578758
 1  2.54222889398940 -1.63220291019102 -1.38355243154315
 1  2.46503820402040 -0.08505558715872 -2.21074309410941
 1  4.41903112741274 -1.23266127232723  0.14779715591559
 1  4.02276321262126  1.57397849414941 -2.44886822912291
 1  5.57389068746875  2.23663805400540 -1.89685404000400
 1  5.68454377717772  0.91079140934093 -3.02529382868287
 1  6.63886690999100  1.32571879957996  0.33220071777178
 1  6.32625597359736 -0.38561181008101  0.53764477157716
 1  7.59406314841484 -1.11038210991099 -1.71135526422642
 1  7.80117164816482  0.54875175167517 -1.98872901980198
 1  9.10516661386139  0.86350896739674  0.11162512501250
 1  8.95363318611861 -0.79350770617062  0.59474409300930
 1  10.43882559405941  0.18942370867087 -1.85724955555556
 1  9.22829932633263 -2.08265530983098 -2.18704366556656
 1  10.92621570627063 -2.19978649124912 -2.39353553955396
 1  10.13164063766377 -2.44402602520252 -0.77549964066407
 1  11.55563032523252  0.59037344484448  0.49253121652165
 1  11.31360176987699 -1.09205154325433  0.57263473647365
 1  12.93453918961896 -1.68178503990399 -0.96979531443144
 1  12.75429433543354 -0.06074659565957 -1.59167753155316
 1  13.81642314551455  0.93134639013901  0.43284994549455
 1  13.76163225352535 -0.79417185448545  1.00387555725573
 1  15.53739613171317  0.34732459285929 -1.40816047554755
 1  15.63168516951695 -2.31501822772277  0.18349075147515
 1  15.22872040384038 -2.00185837943794 -1.79159688008801
 1  16.80581864046405 -1.80839476807681 -1.20959306810681
 1  16.18770398009801  1.44087316001600  0.62925634663466
 1  16.33239494149415 -0.12283867956796  1.36503943564356
 1  18.24637382928293 -0.58081504530453 -0.47919392699270
 1  17.72738281948195  1.08841009950995 -1.16561004490449
 1  18.33328201100110  2.20678257785779  1.14331943284328
 1  18.88622489988999  0.36619023032303  1.71451780338034
 1  20.45616568326832  0.43643007880788  0.07717546794679
 1  20.19989682298230  3.22108109300930 -0.48748901840184
 1  21.34589070297030  2.12591846974697 -1.23979523352335
 1  19.62769360256025  1.89831123342334 -1.82662308560856
 1  21.15292530783078  0.88929823362336  2.10015945754575
 1  22.22767740824082  1.63552208340834  0.90738500470047
 1  21.02612514511451  2.82016569276928  2.00519645084508

