%nproc=4
%Mem=2GB
# td=(NStates=1) CAM-B3LYP/6-31G(d,p) 

TD

0 1
12 -7.11433310261026  0.65052329302930  0.11557960656066
 6 -4.85945482658266 -1.96038815011501  0.46565220012001
 6 -4.66440574687469  2.86597092439244  1.16287974517452
 6 -9.45809039783978  3.10684308370837 -0.41576290929093
 6 -9.61917294489449 -1.77285746074607 -0.77753586858686
 7 -5.03869665126513  0.40611187168717  0.78195571597160
 6 -4.27656526182618 -0.79113973437344  0.80406230903090
 6 -2.86417737893789 -0.43900917301730  1.26477191839184
 6 -2.99619990919092  1.04304543704370  1.77594040044004
 6 -4.30848893559356  1.51394177457746  1.18823508470847
 6 -2.91620941194119  1.22301878917892  3.27052057815782
 6 -1.81136541744174 -0.61155516561656  0.10544987078708
 6 -0.44017227122712 -0.48690692209221  0.59178776167617
 6  0.44882426082608 -0.58143157525753 -0.59288093989399
 8  0.16296684638464 -1.00878228202820 -1.68342762306231
 8  1.80025705070507 -0.41559646644664 -0.24014823492349
 7 -7.00764837333733  2.61015242254225  0.39099425622562
 6 -5.98054518551855  3.33611456535654  0.79040702470247
 6 -6.37378536823682  4.68776940734073  0.84636240074007
 6 -7.72036263166317  4.78487837453745  0.52446935393539
 6 -8.13057361056106  3.43210350165017  0.15738607780778
 6 -5.48252403360336  5.99985107640764  1.13013953915392
 6 -8.56671588398840  6.00395546354635  0.31074109600960
 6 -8.26177537533753  7.26988307260726  0.02642838053805
 7 -9.14805984168417  0.58835531383138 -0.41633333863386
 6 -9.85761742074207  1.72338302090209 -0.62867799199920
 6 -11.17401214411441  1.49399038943894 -1.14882963256326
 6 -11.26044456515652  0.10337421472147 -1.10645991219122
 6 -9.97396728042804 -0.40017850595059 -0.72839214211421
 6 -12.32262050415042  2.39489177007701 -1.48963949484948
 6 -12.38285833153315 -0.71048211041104 -1.69415459265927
 6 -12.28620495249525 -0.93850773597360 -3.19653775917592
 7 -7.27137338943894 -1.37838720032003 -0.19490260896090
 6 -8.32567779007901 -2.26901284078408 -0.41003880978098
 6 -7.85431309880988 -3.56954113701370 -0.39965839483948
 6 -6.53629915191519 -3.47530184568457 -0.09422191429143
 6 -6.20702548074807 -2.12645880038004 -0.00378875747575
 6 -8.54949529422942 -4.99067188608861 -0.69331887888789
 6 -5.39994653235324 -4.36173215851585  0.18044654455446
 8 -5.26511787358736 -5.46165881948195 -0.00046401160116
 6 -4.19924333433343 -3.39929286338634  0.50470136213621
 6 -3.59289365356536 -3.67482356695670  1.84845602530253
 8 -3.68814246884688 -3.12508574137414  2.87713142844284
 8 -2.76702805070507 -4.80379853235323  1.73514160216022
 6 -2.16387902640264 -5.28740921022102  2.91019235623562
 6  2.86288006460646 -0.63284254195420 -1.27469284418442
 6  4.07810113251325 -0.53229707910791 -0.66880940964096
 6  5.14777838523852  0.31204452895290 -1.08351825202520
 6  4.94597201380138  1.22128666496650 -2.29776686778678
 6  6.45159161676168  0.42360116701670 -0.29109579577958
 6  7.64236197509751 -0.09167104900490 -1.01024069276928
 6  8.84632371477148 -0.09069880338034 -0.10254284848485
 6  10.14253514651465 -0.44903200150015 -0.89935633003300
 6  10.09573675987599 -1.87965730063006 -1.46296795829583
 6  11.37101821892189 -0.28505939653965 -0.00933073437344
 6  12.75278244724472 -0.44770128602860 -0.73989452925293
 6  13.91381706950695 -0.17676443964396  0.17954516751675
 6  15.31164650865087 -0.23939655135514 -0.41800485078508
 6  15.80789489168917 -1.55632841864186 -0.89915719551955
 6  16.42698595259526  0.38615300140014  0.43865305000500
 6  17.78907461176118  0.59517764356436 -0.20184846474647
 6  18.79609500900090  1.20503235003500  0.75113747544754
 6  20.33210088988899  1.28569431403140  0.31863146674667
 6  20.35031526042604  2.13763941194119 -0.94598041944194
 6  21.07624549864986  1.96808117751775  1.43743044464446
 1 -3.97543780228023  3.66855523722372  1.48136265726573
 1 -10.20875462716272  3.85764334823482 -0.48310261286129
 1 -10.45945520732073 -2.49560961566157 -1.10274382188219
 1 -2.69060775147515 -1.03252291599160  2.31455869446945
 1 -2.04923456145615  1.64103259185919  1.40300466696670
 1 -1.96571029432943  0.99219470847085  3.70507072047205
 1 -3.05422020822082  2.21804126072607  3.33192776027603
 1 -3.67397837903790  0.38836320402040  3.95175906040604
 1 -2.07397992489249 -1.64388030843084 -0.35588057405741
 1 -2.33541774397440 -0.01298920762076 -0.65019012061206
 1 -0.50402749674968  0.59353727722772  1.07808005990599
 1 -0.10977693139314 -1.24151712711271  1.47875075097510
 1 -5.07686985468547  6.24960013511351  0.33010479267927
 1 -6.19205387568757  6.63051285008501  1.50658534773477
 1 -4.79146237503750  5.91547671907191  2.08297197589759
 1 -9.63868136703670  5.66154909100910  0.06008385288529
 1 -9.13125376577658  8.00015860536053 -0.14507391409141
 1 -7.27722275887589  7.67397796699670 -0.19552402300230
 1 -12.32675808860886  2.52366967226723 -2.90757705610561
 1 -13.31386660016001  1.70252589068907 -1.37842136583658
 1 -12.36853381478148  3.34130721612161 -0.83778527652765
 1 -12.57871039913991 -1.78263066126613 -1.23931413931393
 1 -13.35309131273127 -0.17207102010201 -1.48298565556556
 1 -13.06563702990299 -1.61253249244925 -3.43177617531753
 1 -12.22318249224923  0.00670194429443 -3.79447702270227
 1 -11.29288263586359 -1.44533747774777 -3.54172328782878
 1 -8.69383027892789 -4.83519636793679 -1.65459304070407
 1 -7.91846554755476 -5.94571467966797 -0.50412464056406
 1 -9.47590975677568 -5.20965775277528 -0.24859311551155
 1 -3.54894502650265 -3.71779336383638 -0.32689934293429
 1 -1.14982607260726 -4.72921129842984  3.23672035903590
 1 -3.01234642204220 -5.29396003840384  3.57409463156316
 1 -1.79770119661966 -6.27125130223022  2.54215091799180
 1  2.71889656075608 -1.66901659155916 -1.83692776907691
 1  2.50773247344734 -0.11258834043404 -2.04520654045405
 1  4.04790401470147 -1.03139114531453  0.15337771397140
 1  3.88732966926693  1.15456655295530 -2.60815415771577
 1  5.10368366676668  2.21684607480748 -1.72640699529953
 1  5.87792311511151  0.95810614081408 -3.20582188148815
 1  6.65226825012501  1.43096932463246 -0.01075357765777
 1  6.41578492649265 -0.10887413631363  0.61935294239424
 1  7.46114985708571 -0.99240031173117 -1.47268139683968
 1  7.94913644464447  0.58942581908191 -1.78536868376838
 1  8.99112520972097  1.03635625212521  0.33844780728073
 1  8.81656947974797 -0.73531188658866  0.76863148174817
 1  10.24979669116912  0.23905867216722 -1.71243507410741
 1  9.10533703010301 -1.97115415971597 -1.84999996119612
 1  10.82881596629663 -2.11177769036904 -2.19258544454445
 1  9.84462193579358 -2.62524414701470 -0.55206729742974
 1  11.38413317551755  1.00170457795780  0.31491345474547
 1  11.27166757645765 -1.00679301740174  0.72808028102810
 1  12.83225896159616 -1.49449631103110 -1.27583591849185
 1  12.80635954195420  0.33405288428843 -1.44294265806581
 1  13.85841734493449  0.85414867036704  0.69117577807781
 1  13.91532762306231 -0.96485892319232  1.09145431513151
 1  15.28606099819982  0.27873773417342 -1.19600926042604
 1  15.73142514351435 -2.32484921082108  0.02695509790979
 1  15.12094962676268 -2.11514970857086 -1.72822054245425
 1  16.75525358395840 -1.65402933153315 -1.41965407420742
 1  16.18230344004400  1.26024509720972  0.99938335933593
 1  16.64259596159616 -0.37611400710071  1.11751468316832
 1  18.08251744364437 -0.42828979277928 -0.49944595219522
 1  17.73784386558656  1.27059831833183 -1.07554103800380
 1  18.34917360016001  2.26864876447645  0.61398649954996
 1  18.81279755715572  0.91589520082008  1.95209156075608
 1  20.71321138783878  0.33519995579558  0.13034078447845
 1  20.02101893519352  3.14870385528553 -0.77341761126113
 1  21.24391050495050  2.15558143604360 -1.32339359335934
 1  19.72980381358136  1.81669307160716 -1.77550797409741
 1  20.89690970627063  1.31441074487449  2.27571701330133
 1  22.24482912341234  2.17426595779578  1.07738200440044
 1  20.77393992659266  3.10871454765477  1.61888781998200

