%nproc=4
%Mem=2GB
# td=(NStates=1) CAM-B3LYP/6-31G(d,p) 

TD

0 1
12 -7.18848051735173  0.52809104980498  0.17023507210721
 6 -4.85217409850985 -1.94560667196720  0.49913554845485
 6 -4.81481078737874  2.81578590589059  1.16930038723872
 6 -9.34186877567757  3.02172457185719 -0.31847318031803
 6 -9.56931795939594 -1.74815499049905 -0.86409452445245
 7 -5.03768655025503  0.48518977947795  0.83574109450945
 6 -4.37032463776378 -0.67030765116512  0.78347024982498
 6 -2.89148010921092 -0.41905717781778  1.24676011721172
 6 -3.01450173937394  1.12435356785679  1.78204101050105
 6 -4.34837292399240  1.50513089348935  1.21528778997900
 6 -2.67038482948295  1.24915140244024  3.20241376747675
 6 -1.80093437433743 -0.53425743584358  0.08814814061406
 6 -0.45718397239724 -0.32360059145915  0.53592217511751
 6  0.42332171057106 -0.68084151625163 -0.54232588438844
 8  0.24562511221122 -1.11475287908791 -1.68610789108911
 8  1.73655068006801 -0.45807071387139 -0.10544476457646
 7 -7.13098070657066  2.61218262556256  0.32221737853785
 6 -6.07707483848385  3.33231418531853  0.68330631463146
 6 -6.37433542324232  4.73508413881388  0.72597036153615
 6 -7.75958655405541  4.77413730043004  0.40131703870387
 6 -8.10076062926293  3.43936422772277  0.02480281948195
 6 -5.63850963216322  5.88315940724072  1.29156568176818
 6 -8.57542675507551  6.01390645864586  0.27801782368237
 6 -8.23896309410941  7.26326241054105  0.00001573927393
 7 -9.16077111281128  0.62737921622162 -0.47072877817782
 6 -9.80101176017602  1.76860754335434 -0.62318744294429
 6 -11.29129387228723  1.42214320472047 -0.94975972557256
 6 -11.33955247594759  0.06183006030603 -1.16267553375338
 6 -9.92186206990699 -0.49733822192219 -0.78334763766377
 6 -12.34640288238824  2.39730201110111 -1.25065559645965
 6 -12.48648869456946 -0.69601066326633 -1.67204238143814
 6 -12.36922325432543 -1.06192007720772 -3.11060916631663
 7 -7.30753700580058 -1.40562992459246 -0.14187730643064
 6 -8.21076629892989 -2.29075501500150 -0.65392319821982
 6 -7.74099176667667 -3.64874905780578 -0.58938736773677
 6 -6.50290581258126 -3.54668898439844 -0.20754324642464
 6 -6.27595237343734 -2.18132428692869  0.17442906430643
 6 -8.55325567026703 -4.85185800470047 -1.06414596159616
 6 -5.27592413011301 -4.37816380168017  0.04953345324532
 8 -5.17430879267927 -5.53353600720072 -0.04598856405641
 6 -4.08721213121312 -3.30206314041404  0.46330722272227
 6 -3.52528689288929 -3.60287637223722  1.80450162986299
 8 -3.77209086368637 -3.07641087388739  2.88466218151815
 8 -2.68884023192319 -4.76486463896390  1.67523561156116
 6 -2.24859749824982 -5.12264273357336  3.01221255825583
 6  2.75968974557456 -0.58976823452345 -1.10037541244124
 6  4.15870919331933 -0.33755760516052 -0.41688421712171
 6  5.06331993939394  0.60206353085309 -0.91332123232323
 6  5.10994841144114  1.42474701100110 -2.15756284738474
 6  6.43647010461046  0.58802760966097 -0.16059274547455
 6  7.58889662856286 -0.16913879577958 -0.88317798649865
 6  8.99579866226623 -0.10327006050605 -0.15564815901590
 6  10.16916780978098 -0.60096719501950 -0.87628402280228
 6  10.02135932213221 -2.08198753365337 -1.36072773427343
 6  11.47547866496650 -0.43022391299130  0.08406860556056
 6  12.76829399839984 -0.55898241414141 -0.71721226102610
 6  13.97085277307731 -0.20527729092909  0.20021723472347
 6  15.35951129512951 -0.37785039673967 -0.49680273057306
 6  15.71127522972297 -1.81456424222422 -0.90058733853385
 6  16.49451270527053  0.22221660776078  0.40164934963496
 6  17.82725843014302  0.48979710551055 -0.25870415031503
 6  18.75344074357436  1.24703655045505  0.74699706140614
 6  20.20586826662666  1.39663540814081  0.27560716431643
 6  20.36829705860586  2.14714036203620 -1.13879970137014
 6  21.05241311541154  2.26155052445245  1.29794649624962
 1 -4.11191144964496  3.50519890159016  1.50680520152015
 1 -10.12327607930793  3.80546813071307 -0.27955225782578
 1 -10.32636189798980 -2.40996105080508 -1.18221176867687
 1 -2.56225491619162 -0.91605126882688  2.07840507910791
 1 -2.15358499649965  1.62189067766777  1.03611797829783
 1 -1.78321204450445  0.82368785778578  3.54764497789779
 1 -2.61967675387539  2.45282473907391  3.37856242374238
 1 -3.44103508470847  0.81649601730173  4.00414429892989
 1 -2.01215374227423 -1.65414133453345 -0.43896888288829
 1 -2.03075727792779  0.27335942724272 -0.71087618921892
 1 -0.02193928792879  0.54777270077008  0.91063331523152
 1 -0.18647460116012 -1.06266924232423  1.50205308120812
 1 -4.94507667536754  6.24949012411241  0.42251403360336
 1 -6.42340701100110  6.67799759855986  1.58009269846985
 1 -5.24766799559956  5.64831000240024  2.21946562526253
 1 -9.68083558245825  5.89054199029903  0.45056290079008
 1 -8.84843548394839  8.29444803430343 -0.06920632733273
 1 -7.19903494009401  7.38293886308631 -0.32476694729473
 1 -12.14356976977698  3.23353065836584 -2.01095739413941
 1 -13.13127834133413  1.73572921102110 -1.59612313601360
 1 -12.79364632603260  2.99602268766877 -0.26684818281828
 1 -12.79497202530253 -1.48551094929493 -1.00343055095510
 1 -13.47959396299630 -0.25436924992499 -1.50509786678668
 1 -13.08600906710671 -1.81357259645965 -3.36109910761076
 1 -12.64727490149015 -0.25918464436444 -3.74224179917992
 1 -11.39864321192119 -1.39296224022402 -3.32489160466047
 1 -9.00259115501550 -4.56869971827183 -2.15055263666367
 1 -8.05400910191019 -5.86068617681768 -1.08182241034103
 1 -9.39568173397340 -5.05718250525053 -0.57224548074807
 1 -3.40801093309331 -3.57992957745775 -0.38273492649265
 1 -1.46610770077008 -4.34044242154215  3.40331701870187
 1 -2.92131731913191 -5.32514315671567  3.78363558565857
 1 -1.65437686418642 -6.23095727282728  2.95200190309031
 1  2.93394806590659 -1.65417510741074 -1.52365644194419
 1  2.62101380158016  0.15478839723972 -1.82611463126313
 1  4.47881710601060 -0.72945095129513  0.46588896509651
 1  4.13259419571957  1.58188928522852 -2.86772011431143
 1  5.50425372377238  2.26562095229523 -1.77774212881288
 1  6.09496481928193  1.13508383858386 -2.78571987128713
 1  6.93951697499750  1.61982821052105 -0.10605310761076
 1  6.39863321132113  0.10579733083308  0.92150315741574
 1  7.32026576867687 -1.18715978767877 -1.29528365706571
 1  7.86488801980198  0.25865274177418 -1.90696084298430
 1  9.06462255945594  0.85420803730373  0.09435339783978
 1  8.71598942174217 -0.70427878327833  0.68157277587759
 1  10.38397010851085 -0.03228846254626 -1.87972180278028
 1  9.35099159555956 -2.04348139243924 -2.16617157835784
 1  10.95235832053205 -2.36008252085209 -1.67973415941594
 1  9.80686816041604 -2.65592721532153 -0.57626971767177
 1  11.47204196639664  0.67197160466047  0.28364032743274
 1  11.13475388508851 -1.16139847794779  0.84291176417642
 1  13.00468620432043 -1.52545940734073 -1.15878421332133
 1  12.63689259525953  0.24517399639964 -1.66949531333133
 1  14.05210671387139  0.91448470397040  0.25886254675468
 1  13.82083817411741 -0.81476391369137  1.16514168386839
 1  15.48114050615062  0.30477033743374 -1.34034369386939
 1  15.75548754975498 -2.37377410331033 -0.01517911551155
 1  14.89800733253325 -2.42193038663866 -1.35679339973997
 1  16.66659471807181 -1.92904683328333 -1.40482259105911
 1  16.01206641634163  1.18138721142114  0.89850327132713
 1  16.72302400440044 -0.26234262996300  1.17341027272727
 1  18.28943813571357 -0.32375933973397 -0.49436544414441
 1  17.83679376057606  0.96981824032403 -1.28542202610261
 1  18.11285996879688  2.10211211081108  1.06342144304431
 1  18.83890016741674  0.68881249254925  1.67071342294229
 1  20.67599766646665  0.36560299609961  0.28859661006101
 1  19.89075590889089  3.19430841574157 -1.06264653415341
 1  21.31582769666967  2.30203608150815 -1.41287254125413
 1  19.86377721092109  1.39874127642764 -1.82285270857086
 1  20.97235725102510  1.72559186298630  2.18191763336334
 1  21.98471311181118  2.38524705590559  0.94030829702970
 1  20.48596112871287  3.22412608880888  1.49778570977098

