%nproc=4
%Mem=2GB
# td=(NStates=1) CAM-B3LYP/6-31G(d,p) 

TD

0 1
12 -7.11727339663966  0.54710295099510  0.15750379897990
 6 -4.83832271337134 -2.01067317861786  0.51470710561056
 6 -4.81609091539154  2.75502983028303  1.23208666586659
 6 -9.39167375617562  3.03969636903690 -0.37481881488149
 6 -9.54616564416442 -1.87536771177118 -0.74688280328033
 7 -5.14058684028403  0.37553881438144  0.69142666306631
 6 -4.29140674597460 -0.74879549994999  0.82160406320632
 6 -2.91449241044104 -0.43706897899790  1.28638407960796
 6 -3.04565485468547  1.07894902740274  1.63612641904190
 6 -4.45286337303730  1.43416379677968  1.18338459965997
 6 -2.95264305530553  1.35036152345235  3.22225575167517
 6 -1.81860614151415 -0.72078608870887  0.20203952975298
 6 -0.39564781878188 -0.47090532193219  0.53385196809681
 6  0.51603098149815 -0.49660309240924 -0.63327497929793
 8  0.22259280898090 -0.77515891969197 -1.77750703100310
 8  1.76451347634763 -0.34012891969197 -0.26232045214521
 7 -7.12701030953095  2.63761516881688  0.38386354315432
 6 -6.07057418841884  3.41889284318432  0.78552653665367
 6 -6.45828381808181  4.80272090249025  0.85081284578458
 6 -7.74086468186819  4.78451833853385  0.36171307830783
 6 -8.09553010621062  3.41003129442944  0.02699303850385
 6 -5.62791857305730  6.02489358065807  1.32861938713871
 6 -8.67299651205121  6.00463553155316  0.11991201310131
 6 -8.13184238203820  7.20161624592459  0.09628536623662
 7 -9.10441547724773  0.67235371367137 -0.49257096239624
 6 -9.90554221322132  1.81404208680868 -0.68563368756876
 6 -11.22833757665767  1.51795278567857 -1.18590333993399
 6 -11.27161568226823  0.03633751105111 -1.23344261046105
 6 -9.90373025672567 -0.39632812091209 -0.74921422432243
 6 -12.32107034913491  2.45294757565757 -1.52088261916192
 6 -12.43450349604960 -0.82155321752175 -1.62520769796980
 6 -12.29943627562756 -1.27700158535854 -3.09889799519952
 7 -7.23535978807881 -1.41062042364236  0.00766764806481
 6 -8.31143636593659 -2.32157809730973 -0.47342514841484
 6 -7.82541020852085 -3.72455663856386 -0.50893932293229
 6 -6.43049857185719 -3.54310862636264 -0.16326881898190
 6 -6.11296607480748 -2.22957911241124  0.08561018241824
 6 -8.59540988568857 -4.80962378127813 -0.83930347734773
 6 -5.27914445214521 -4.39901588688869  0.08023652355236
 8 -5.16570793259326 -5.53178583218322  0.01876791159116
 6 -4.19278268826883 -3.37827076117612  0.55374626662666
 6 -3.55452981718172 -3.68454453905391  1.85174635433543
 8 -3.85247890249025 -3.16165939873987  2.91559527482748
 8 -2.82868421632163 -4.78615676817682  1.82788087608761
 6 -2.25044768326833 -5.25701617091709  2.96456779377938
 6  2.76643041964196 -0.47539679737974 -1.30659603450345
 6  4.05246856925693 -0.33319716911691 -0.66894942364236
 6  5.09628323572357  0.55341866636664 -0.93530343054305
 6  5.01945936253625  1.66406094239424 -2.15165225632563
 6  6.43808026562656  0.54725353225323 -0.20862754895490
 6  7.63722146104610 -0.07385926782678 -0.99304897359736
 6  8.92757183958396 -0.05962569606961 -0.09315190939094
 6  10.17309820282028 -0.50048714701470 -0.93529992439244
 6  10.06822400860086 -1.96802613751375 -1.36578824032403
 6  11.43069418651865 -0.20196108670867  0.06251645034503
 6  12.81635880488049 -0.39766628252825 -0.60827136693669
 6  13.97688337613761 -0.12610937413741  0.19295650865087
 6  15.28927427142714 -0.27285989768977 -0.48739178947895
 6  15.73115721792179 -1.76177896369637 -0.91336861666167
 6  16.48054130813081  0.30956534263426  0.44588377307731
 6  17.83636934123412  0.53066119191919 -0.20753903380338
 6  18.92395779527953  1.07291913871387  0.79400176187619
 6  20.23548122792279  1.26292203680368  0.21906150975098
 6  20.30140036893689  2.13523917191719 -1.03497931933193
 6  21.25847372147215  1.70417478687869  1.24939164076408
 1 -4.06352661116112  3.38747712941294  1.64682920392039
 1 -10.09186293799380  3.84208179207921 -0.60261456405641
 1 -10.44373363516351 -2.53460351505151 -0.77027057455746
 1 -2.83118180888089 -0.90161982568257  2.27138437703770
 1 -2.18484812281228  1.72377086568657  1.14655902240224
 1 -1.85050877417742  1.16863235223522  3.50611082448245
 1 -3.06992177837784  2.34169362596260  3.51503607110711
 1 -3.68247922912291  0.65865023272327  3.66986087058706
 1 -1.86955948284829 -1.76037195759576 -0.28860384638464
 1 -1.90152435463546 -0.25303321202120 -0.76748184978498
 1 -0.36985407940794  0.62498042154215  0.95313756565657
 1 -0.08647460116012 -1.27517049244924  1.30791366726673
 1 -5.14957712541254  6.57685286038604  0.52763454565457
 1 -6.44511918221822  6.59909970877088  2.01941663086309
 1 -5.13066629542954  5.49632480388039  2.14225790449045
 1 -9.70108760766077  5.65211814791479  0.04269211371137
 1 -8.73142378277828  8.12559114861486 -0.16022542924292
 1 -7.04986002260226  7.38309887908791  0.05204073347335
 1 -12.23022843564356  2.95808311361136 -2.51243754215422
 1 -13.28635384888489  1.98179381748175 -1.52856638033803
 1 -12.31266822822282  3.30901398679868 -0.70997249524953
 1 -12.43167569566957 -1.62092449064906 -0.92401260916092
 1 -13.37239324292429 -0.39123293629363 -1.66718407540754
 1 -13.08143861006100 -1.86819805900590 -3.34707770547055
 1 -12.42331250525053 -0.26503522942294 -3.61655923092309
 1 -11.24433778137814 -1.50730367436744 -3.29908902440244
 1 -8.89930082598260 -5.12747559585959 -1.87781536293629
 1 -7.95219892089209 -5.79616972517252 -0.65090931903190
 1 -9.54850701650165 -4.85372215921592 -0.23911216741674
 1 -3.43479361136114 -3.67310889538954 -0.35908256125613
 1 -1.81867295729573 -4.42910128742874  3.58969565656566
 1 -2.88712389978998 -5.74364500690069  3.55348257035704
 1 -1.42142356885689 -6.06094027112711  2.75663236613661
 1  2.67114178527853 -1.38666835673567 -1.88937301360136
 1  2.66334803500350  0.43283620202020 -2.07810983078308
 1  4.30832005630563 -0.93001100730073  0.32495487168717
 1  4.03677461376138  1.98315941224122 -2.46283962626263
 1  5.41162446084608  2.65338972917292 -1.72604695929593
 1  5.54143946674667  1.41713204340434 -3.13234453375338
 1  6.73650667396740  1.60501672937294 -0.02306480878088
 1  6.19576292429243  0.15812256335634  0.59000000710071
 1  7.33344708680868 -1.29581065276528 -1.21794592329233
 1  7.75567709870987  0.35340221672167 -2.04637478437844
 1  8.97139323652365  0.89698231473147  0.34292825532553
 1  8.78804662746275 -0.79749810521052  0.86465108370837
 1  10.20169188068807  0.32227699399940 -1.53948777937794
 1  9.04372086848685 -2.16506355065507 -1.85659062026203
 1  10.94037712241224 -2.34508102070207 -1.99730591659166
 1  10.01753922752275 -2.58147977057706 -0.35010710141014
 1  11.47804256645665  0.81439584708471  0.31613357675768
 1  11.33969437913791 -0.94102644074407  0.83478095109511
 1  12.92311804750475 -1.41976883828383 -0.96667500240024
 1  12.97885679167917  0.02627210621062 -1.54123248704870
 1  13.99957146034603  0.88387164266427  0.39619628012801
 1  13.88128421872187 -0.72326476377638  1.11817698739874
 1  15.28662105420542  0.42123198359836 -1.34125378487849
 1  16.13187518851885 -2.31873859975998  0.03318572097210
 1  15.11577910971097 -2.27747594119412 -1.57633535393539
 1  16.72842090069007 -1.84313824242424 -1.49421152995300
 1  16.25427063676367  1.23619269196920  1.03861728272827
 1  16.42347404940494 -0.31344774047405  1.44055698739874
 1  18.23338253015302 -0.49815677947795 -0.75477148474847
 1  17.60167024822482  1.07304856335634 -0.99532301620162
 1  18.41058974177418  1.88227012661266  1.12610771167117
 1  19.08139441684168  0.30561417271727  1.68572492409241
 1  20.67264733143314  0.25299173497350 -0.22157440704070
 1  20.07552438573858  3.31235021992199 -0.88660893039304
 1  21.30964707860786  2.23519939783978 -1.48811006500650
 1  19.46467730093009  1.80530193249325 -1.79298972227223
 1  21.41918193349335  0.91429073287329  2.16127556915692
 1  22.20507514801480  1.88848737993799  0.72870713691369
 1  20.94380691329133  2.76204988118812  1.53355928712871

