%nproc=4
%Mem=2GB
# td=(NStates=1) CAM-B3LYP/6-31G(d,p) 

TD

0 1
12 -7.13524519381938  0.58765700640064  0.12760080868087
 6 -4.94283316441644 -1.94251636293629  0.56957259215922
 6 -4.84869417571757  2.75754008130813  1.17669112631263
 6 -9.39231382018202  3.10545294469447 -0.29721105410541
 6 -9.58831985958596 -1.69784995999600 -0.98998711371137
 7 -5.10112289388939  0.40322158265827  0.76018353875388
 6 -4.36455406070607 -0.76308692909291  0.83895579837984
 6 -2.87846880808081 -0.40765603770377  1.23052849404940
 6 -2.94245453465347  1.03941507400740  1.64538734513451
 6 -4.44244233093309  1.51422180258026  1.18011427262726
 6 -3.00732852385239  1.19735622292229  3.15278880498050
 6 -1.92142642354235 -0.67569157925793  0.04949427522752
 6 -0.41639989398940 -0.54342257365737  0.47991657455746
 6  0.45829520792079 -0.71810524262426 -0.60669232103210
 8  0.27147769746975 -0.99872127592759 -1.77880716101610
 8  1.83325035003500 -0.47957286408641 -0.15563978407841
 7 -7.18862647114712  2.53995540284028  0.33130828762876
 6 -6.10009714071407  3.28927988188819  0.84945292929293
 6 -6.38645663536354  4.78253888428843  0.86465422992299
 6 -7.60176077147715  4.79043893059306  0.30381728872887
 6 -8.12707326052605  3.52663295459546 -0.02252191299130
 6 -5.47283306450645  5.84061515281528  1.38574509970997
 6 -8.42903211561156  6.03395846384638  0.31635165706571
 6 -8.10654985278528  7.29269535383538  0.13684942264226
 7 -9.19379441514151  0.71406788508851 -0.53143484878488
 6 -9.87701936093609  1.78953963656366 -0.52179730393039
 6 -11.15336007890789  1.51432242264226 -1.12198694829483
 6 -11.20059858055806  0.21290516781678 -1.33365263146315
 6 -9.92856273997400 -0.39126761486149 -0.90621992489249
 6 -12.25918416051605  2.44428670957096 -1.41550208110811
 6 -12.41315136083608 -0.71817287948795 -1.73516869406941
 6 -12.25911224322432 -0.90703458865887 -3.20028813421342
 7 -7.33407966006601 -1.45581494309431 -0.03882700140014
 6 -8.37276249854986 -2.17579351885189 -0.41318912481248
 6 -7.93878154565456 -3.51369555245525 -0.50376880588059
 6 -6.57958348034804 -3.51456577207721 -0.05264775687569
 6 -6.28611338953895 -2.19031518601860  0.11944356575658
 6 -8.68412875757576 -4.86308912781278 -0.81403095009501
 6 -5.43008954665467 -4.37495348064806  0.12762126202620
 8 -5.26640800260026 -5.58708136173617  0.17116315111511
 6 -4.23721713171317 -3.30899383348335  0.53437432943294
 6 -3.52278664286429 -3.63823990859086  1.90506168586859
 8 -3.70243389798980 -3.05385861866187  2.84538825412541
 8 -2.64403575147515 -4.67873602610261  1.65864395239524
 6 -2.08026066456646 -5.20672114141414  2.94263560056006
 6  2.87366114271427 -0.78394765246525 -1.10305568046805
 6  4.19153247564757 -0.65843969336934 -0.56238876757676
 6  5.15691929932993  0.16218954345435 -0.85471537173717
 6  5.12277969456946  1.00808534483448 -2.20042713381338
 6  6.45126158375838  0.23718252515252 -0.20636732293229
 6  7.60275801470147 -0.24130601250125 -0.92705237393739
 6  8.88141722412241 -0.25168490199020 -0.04819741394139
 6  10.19647054005400 -0.55692279057906 -0.83634002840284
 6  10.10538772497250 -1.99027836273627 -1.40048170967097
 6  11.44066518361836 -0.35671656225623 -0.00799060036004
 6  12.75867303630363 -0.40555707160716 -0.77113765356536
 6  13.96310199799980 -0.02121888508851  0.15063227622762
 6  15.29256460046005 -0.10074268596860 -0.59124217451745
 6  15.66354045624563 -1.59853263906391 -1.00534781458146
 6  16.41609486348635  0.46942132823282  0.32352153685369
 6  17.86965266956696  0.68537666346635 -0.20788906880688
 6  18.79641504100410  1.29525137193719  0.81287364906491
 6  20.29215689548955  1.44202994759476  0.25208481208121
 6  20.29584981388139  2.26403205120512 -0.99962578397840
 6  21.09672754685469  2.10620498989899  1.34903160476048
 1 -3.89228948744874  3.65692407410741  1.31561608260826
 1 -10.14357810951095  3.78656624052405 -0.64135843844384
 1 -10.32114137593759 -2.44193424812481 -1.32587613511351
 1 -2.55931462216222 -1.00649031273127  2.09627686628663
 1 -2.16285592359236  1.52073056165617  1.27600196669667
 1 -1.99535325862586  1.04632012101210  3.76440665406541
 1 -3.33310809700970  2.20397985458546  3.35101966946695
 1 -3.78999998119812  0.62576694439444  3.58405228972897
 1 -2.03870639753975 -1.67613353375338 -0.47507249324932
 1 -2.17000120232023  0.12845493679368 -0.72022712431243
 1 -0.16390348434843  0.42916083958396  0.99557180908091
 1 -0.26325227892789 -1.35363833923392  1.34618749464946
 1 -4.94326649434943  6.59669484458446  0.41862364456446
 1 -6.19541421172117  6.61650144894489  1.79856454565457
 1 -4.77368059685969  5.53316848824883  2.11792547124712
 1 -9.38231573047305  5.72045498159816  0.74412225672567
 1 -8.85843648404840  7.95809439893989  0.28088868216822
 1 -7.31713675027503  7.81978254745475 -0.11330580118012
 1 -12.17411282408241  3.25192249754975 -2.19255555395540
 1 -13.28506371987199  1.88872451055106 -1.54240776447645
 1 -12.50333729512951  3.10348343374337 -0.71403290129013
 1 -12.05308783688369 -1.50344274247425 -1.09328953685369
 1 -13.50485648924893 -0.19952376537654 -1.51024838183818
 1 -13.00523098929893 -1.67231847104710 -3.52491548924892
 1 -12.47225739973998  0.06454772887289 -3.90805838083808
 1 -11.38146149374938 -1.27606055005501 -3.48965808130813
 1 -9.11116201210121 -5.11167401570157 -1.78355593699370
 1 -8.06877057805781 -5.72774288248825 -0.47898212631263
 1 -9.53611577737774 -5.18584537153715 -0.16993524972497
 1 -3.44498463046305 -3.51808339283928 -0.24928158115812
 1 -1.38245933593359 -4.44077245454545  3.29862654965497
 1 -3.02906809420942 -5.44680532293229  3.53614083618362
 1 -1.58596002250225 -5.97932210931093  2.61671837473747
 1  2.56614128522852 -1.79119880978098 -1.62204628092809
 1  2.61057275747575 -0.05655273687369 -1.93353537333733
 1  4.23629285358536 -1.28299630583058  0.44037641384138
 1  4.11543247954795  1.22808390469047 -2.66110945324532
 1  5.51932523092309  2.07552194239424 -2.03563791839184
 1  5.88809413221322  0.63368369856986 -2.90237153645365
 1  6.76327935123512  1.19168539623962  0.27575507320732
 1  6.41555490349035 -0.38105135403540  0.84845585268527
 1  7.33946768886889 -1.24699577127713 -1.26196032473247
 1  7.67145867686769  0.25570244674467 -1.90531067796780
 1  9.02591868906891  0.65890850735073  0.37042100460046
 1  8.75212303510351 -1.00234859025903  0.66832145074507
 1  10.28071978347835  0.29559432573257 -1.62309614021402
 1  9.08588508490849 -2.14790183448345 -1.98900386158616
 1  11.03800688538854 -2.08651516411641 -1.85487167316732
 1  10.06456392999300 -2.64351597419742 -0.30645273597360
 1  11.34502926512651  0.63508791629163  0.63046500990099
 1  11.37426783648365 -1.17780011811181  0.68847632063206
 1  13.14440017571757 -1.42466932833283 -1.05215355025503
 1  12.71340024602460  0.36348582758276 -1.54406277007701
 1  13.69450095329533  1.02347560306031  0.42363902440244
 1  13.71512760306030 -0.57011944924492  1.00359552925293
 1  15.34798719081908  0.66018587898790 -1.50801046054605
 1  15.77353935493549 -2.10579730563056  0.02607500990099
 1  14.89593712551255 -2.21588978257826 -1.59074679507951
 1  16.54500255885589 -1.65502943154315 -1.65352746154615
 1  15.89724493419342  1.34909398209821  0.56019944094409
 1  16.37374907690769  0.18054165846585  1.34466739843984
 1  18.34134332623263 -0.07712467626763 -0.48396440404040
 1  17.80016009720972  1.43397465596560 -1.03067655155516
 1  18.66925560836084  2.25011691129113  1.23873897479748
 1  18.96427270467047  0.69564317561756  1.69445579717972
 1  20.66728679537954  0.56400283608361  0.10142789318932
 1  19.87848468176818  3.10049903480348 -0.94757502700270
 1  21.29815592949295  2.73881975987599 -1.16018727272727
 1  19.81106193939394  1.63764516681668 -1.83008343164316
 1  21.27696771207121  1.38079738353835  2.09837927952795
 1  21.99200384088409  2.02225075627563  1.05594986118612
 1  20.69361189378938  3.23101677787779  1.69282521372137

