%nproc=4
%Mem=2GB
# td=(NStates=1) CAM-B3LYP/6-31G(d,p) 

TD

0 1
12 -7.20986265556556  0.65413365406541  0.17960600920092
 6 -4.97149603070307 -1.94509662096210  0.50368600350035
 6 -4.78361766806681  2.80587491479148  1.16774023122312
 6 -9.34758934773477  3.14287668706871 -0.36600793379338
 6 -9.56111713931393 -1.65586576157616 -0.77166528152815
 7 -5.15269805140514  0.35779704020402  0.72246976737674
 6 -4.36148375367537 -0.74230485088509  0.79539144194419
 6 -2.98258922012201 -0.39495476757676  1.16699214041404
 6 -3.05302559175918  1.02829396189619  1.65367817421742
 6 -4.44809289598960  1.49677005740574  1.07577383858386
 6 -2.93197098809881  1.15947243454345  3.15384891099110
 6 -1.94933921482148 -0.70888489858986  0.11274059985999
 6 -0.42514076807681 -0.72221045244524  0.49536811971197
 6  0.52209158755876 -0.82693612571257 -0.67427907970797
 8  0.16423697339734 -1.07946935073507 -1.77262654295430
 8  1.77955498049805 -0.54925983278328 -0.29617383748375
 7 -7.08319592809281  2.58409981728173  0.29536469326933
 6 -5.96932406340634  3.31015196909691  0.73624160816082
 6 -6.30133812351235  4.75236586698670  0.73589135363536
 6 -7.63357395279528  4.75959584628463  0.28067497449745
 6 -8.05631618481848  3.43022331363136  0.09878021722172
 6 -5.42738852005201  5.77430852215222  1.10562708790879
 6 -8.55764497689769  6.08526359435944  0.26073609550955
 6 -8.21510070787079  7.35928201250125  0.18392413011301
 7 -9.06115115081508  0.71813829212921 -0.48706041134113
 6 -9.78219987898790  1.83307398999900 -0.63802892709271
 6 -11.21034577747775  1.51493248364837 -0.98962371197120
 6 -11.27920644134413  0.14914879217922 -1.12015128132813
 6 -9.86121600530053 -0.37624611271127 -0.74691399429943
 6 -12.32768101020102  2.56921920282028 -1.26562709360936
 6 -12.50800084578458 -0.64108517071707 -1.61019619681968
 6 -12.45944227622762 -0.92462634783478 -3.06740484588459
 7 -7.28667491959196 -1.40259962156216 -0.14136725542554
 6 -8.43973919621962 -2.31375731523152 -0.37754556045605
 6 -7.95987365486549 -3.70739492239224 -0.32983141214121
 6 -6.56769229122912 -3.61003531903190 -0.16447893999400
 6 -6.24084886308631 -2.16374252875287  0.01474309570957
 6 -8.82596294099410 -4.84561738063806 -0.56629617661766
 6 -5.50657719541954 -4.37591357665767  0.13706220612061
 8 -5.17635899769977 -5.58305095869587  0.20682671747175
 6 -4.31978538853885 -3.38557149124912  0.45904679667967
 6 -3.60813517771777 -3.59482556715672  1.74011519121912
 8 -3.62301595619562 -3.03017625042504  2.83957767306731
 8 -2.82784413231323 -4.69662781528153  1.55540362836284
 6 -2.09677231573157 -5.13741421072107  2.74937627462746
 6  2.77939171577158 -0.79711896959696 -1.31626700160016
 6  4.13160648304831 -0.59107295669567 -0.70114264296430
 6  5.10170377777778  0.20869419391939 -0.96312621282128
 6  5.24230164676468  1.19217375367537 -2.07094418551855
 6  6.42395885348535  0.23053186008601 -0.12904959115912
 6  7.67416515541554 -0.33052493439344 -0.90580024872487
 6  8.99312839523952 -0.25396513001300 -0.06191878607861
 6  10.11816270927093 -0.59731682998300 -0.87924431883188
 6  10.21144833103310 -2.04047338223822 -1.42832449394940
 6  11.50661177827783 -0.27043793439344 -0.13246304760476
 6  12.84678184718472 -0.51595811171117 -0.80403094289429
 6  14.04782046984698 -0.11023778697870  0.16827404040404
 6  15.39971531553155 -0.10136274797480 -0.46617966826683
 6  15.87171127332733 -1.52014480028003 -0.98133541334133
 6  16.45893914791479  0.49481386748675  0.39504868956896
 6  17.78124382868287  0.73458158395840 -0.17563584348435
 6  18.81440684018402  1.35968781558156  0.85352771447145
 6  20.22005968576858  1.52702844744474  0.38135773937394
 6  20.39843007190719  2.35117076507651 -0.91801762316232
 6  21.12819069316932  2.13135750515052  1.54619132073207
 1 -3.82579283778378  3.46646502820282  1.53467798879888
 1 -9.92759651135114  4.02693027692769 -0.57611191379138
 1 -10.21947120892089 -2.20862091679168 -1.41439498699870
 1 -2.62663135383538 -0.96301596529653  1.97749498809881
 1 -2.38557819581958  1.56554504310431  1.12679704620462
 1 -1.92428615191519  0.86328181718172  3.63331354475448
 1 -2.81092587878788  2.26602605920592  3.19528409590959
 1 -3.91667264846485  0.85493986168617  3.61063494799480
 1 -2.33397592449245 -1.76274219461946 -0.52896788278828
 1 -1.93900810301030  0.07547963926393 -0.77390249184918
 1 -0.24136123012301  0.23664158765877  1.18088033993399
 1 -0.20945689938994 -1.51029400480048  1.18763163906391
 1 -4.94571673937394  6.20882605770577  0.23359514171417
 1 -6.03004767506751  6.71920171897190  1.74532922212221
 1 -4.62524575337534  5.39207437883788  1.79899357805781
 1 -9.60945844474447  5.88670160626063  0.62132997749775
 1 -8.86441708210821  8.15033362286229  0.36796739003900
 1 -7.11166620322032  7.37985855505551 -0.18986345694569
 1 -12.10383579637964  3.07337464276428 -2.34161045944594
 1 -13.38012322582258  2.06696233433343 -1.34913843754375
 1 -12.27145410681068  3.44229731513151 -0.44091558955896
 1 -12.70885341344134 -1.45659805800580 -0.78770897879788
 1 -13.40259626322632  0.18388457545755 -1.49144650165017
 1 -13.47495796199620 -1.37547878707871 -3.50607360506051
 1 -12.25236541054105  0.08172944704470 -3.56312388738874
 1 -11.68135148274827 -1.52760570457046 -3.38380749624963
 1 -9.49493038893890 -4.59326217451745 -1.48647622902290
 1 -8.17061076207621 -5.73654376257626 -0.64077830593059
 1 -9.76460862666267 -5.16868365536554  0.29136087988799
 1 -3.43007313931393 -3.27155874037404 -0.31851850485049
 1 -1.18519960996100 -4.44567294459446  3.03946063306331
 1 -2.69187437483748 -5.19890053245325  3.63955117721772
 1 -1.65849727622762 -6.11569574667467  2.35968267116712
 1  2.81635630673067 -1.84296398629863 -1.60034411071107
 1  2.41361306150615  0.04178709710971 -2.31275329512951
 1  4.23066229052905 -1.44113211941194  0.15914829102910
 1  4.08808974527453  1.41044214051405 -2.32495583788379
 1  5.85777907630763  2.04021841204120 -1.51506586118612
 1  5.67600292309231  0.71616194639464 -2.83671497079708
 1  6.55500852415242  1.29543577127713  0.31641913961396
 1  6.27553090109011 -0.35439868876888  0.84401540864086
 1  7.38847258935894 -1.47780885258526 -1.04964909360936
 1  7.86217774877488 -0.00211333483348 -1.76054620152015
 1  9.05377147434743  0.69816243274327  0.51588555105511
 1  8.91774959775978 -1.18889724512451  0.71726634523452
 1  10.20839255075508  0.21599636593659 -1.73942777337734
 1  9.40822731913191 -2.18268531283128 -2.25000996219622
 1  11.08810189488949 -2.11371788438844 -2.04550073607361
 1  10.15876334993499 -2.73041466406641 -0.72784487518752
 1  11.37812257445744  0.84292870037004  0.27645960936094
 1  11.43466387608761 -0.94335667376738  0.72219969296930
 1  12.89434517021702 -1.53615047644765 -1.18426676157616
 1  13.02339124512451  0.32133161216122 -1.64814317811781
 1  13.87361886508651  0.82870612611261  0.46078273877388
 1  14.15698178847885 -0.80928336563656  0.94532970267027
 1  15.27567996009601  0.54354421482148 -1.37038669816982
 1  15.99377137813782 -2.11485821172117 -0.07462506010601
 1  15.04973250505051 -1.85373356695670 -1.57593531393139
 1  16.75166322492250 -1.52321625022502 -1.42348445724572
 1  15.97740294999500  1.44132320502050  0.58239166016602
 1  16.41111281328133 -0.01163755945595  1.44368730043004
 1  18.27649684158416 -0.29660662446245 -0.42427843544354
 1  17.86953703490349  1.00472173067307 -1.26988047194719
 1  18.26861554435444  2.36611851145115  1.01561666256626
 1  18.69886616401640  0.77847145844584  1.76413276487649
 1  20.81606167286728  0.55077151295129  0.21698944934493
 1  19.95622245554556  3.36834581948195 -0.90704097359736
 1  21.34945105900590  2.52583846174617 -1.04283553755376
 1  20.23400423362336  1.55359676197620 -1.89906032933293
 1  21.37655767106711  1.62409171297130  2.46716615821582
 1  22.06420106060606  2.35418394959496  1.01356562276228
 1  20.90918345094510  3.21302497869787  1.73553948514851

