%nproc=4
%Mem=2GB
# td=(NStates=1) CAM-B3LYP/6-31G(d,p) 

TD

0 1
12 -7.18113978327833  0.59213745444544  0.10693874247425
 6 -4.84619350045005 -1.92004411571157  0.60713634853485
 6 -4.78486779307931  2.85598992629263  1.07533099029903
 6 -9.31072566136613  3.09347174657466 -0.36992832583258
 6 -9.45654668226823 -1.74630480548055 -0.95537365236524
 7 -5.11857463906391  0.43648490899090  0.86667418781878
 6 -4.36579418471847 -0.73843446384638  0.91169307210721
 6 -2.84264522572257 -0.32714798689869  1.38815425662566
 6 -3.01591188038804  1.11456258875888  1.78957176357636
 6 -4.44582266896690  1.50941132153215  1.18455471667167
 6 -3.07176496749675  1.25048153545355  3.26803032913291
 6 -1.95478975987599 -0.54313832393239  0.16798612441244
 6 -0.45664391839184 -0.50519875127513  0.53082166506651
 6  0.50951032943294 -0.72566599869987 -0.52884453625363
 8  0.17511806150615 -1.01834323812381 -1.64306358665867
 8  1.75770279527953 -0.43924883168317 -0.23373759385939
 7 -7.11763937243724  2.54750615791579  0.38765392219222
 6 -6.11520865186519  3.34310526442644  0.83865184918492
 6 -6.42090007970797  4.81915254565456  0.80032779727973
 6 -7.72342293769377  4.91392127882788  0.43858076507651
 6 -8.12933348654865  3.49360965226523  0.04374471367137
 6 -5.54334011521152  5.82453354465447  1.32864939013901
 6 -8.59884909730973  6.04690975897590  0.35871589348935
 6 -8.25536473427343  7.28353443774377  0.28900463816382
 7 -9.07325236093609  0.69932641094109 -0.53959566486649
 6 -9.82076373537354  1.84580526312631 -0.72261738593859
 6 -11.22254699759976  1.47988897929793 -1.13840859045905
 6 -11.14427294799480  0.18335221252125 -1.37211647784779
 6 -9.84300418411841 -0.41514000210021 -0.90249955285529
 6 -12.28434667676768  2.55446772767277 -1.50618114901490
 6 -12.24876492219222 -0.71368243044304 -1.91245642284228
 6 -12.19968630063006 -1.20545443064306 -3.32733083848385
 7 -7.21838809090909 -1.34509387098710 -0.08058117681768
 6 -8.26094131643164 -2.23595953545355 -0.54797260316032
 6 -7.76887455495550 -3.74342852575258 -0.44377280628063
 6 -6.45485100710071 -3.53832814831483 -0.08062055415542
 6 -6.19031380958096 -2.12886904140414  0.17769939133913
 6 -8.69295964066407 -4.78057087598760 -0.78832837983798
 6 -5.30482702040204 -4.26342232753275  0.13686218611861
 8 -5.14276563836384 -5.49083173677368  0.10334636943694
 6 -4.14487789778978 -3.33550648474847  0.57511840384038
 6 -3.57038140234023 -3.62444852945295  1.96722790249025
 8 -3.74776843144314 -3.10673390619062  3.01916563186319
 8 -2.84006535443544 -4.77380553305330  1.82879096709671
 6 -2.27711034953495 -5.37972844214421  2.98149948694870
 6  2.75515929252925 -0.68396765446545 -1.24181955685569
 6  4.11907522992299 -0.55024887428743 -0.50578310701070
 6  5.13853746114611  0.19127245174517 -0.91496139633963
 6  5.09935735233523  1.16301083738374 -2.11336842794279
 6  6.40512697029703  0.19127793469347 -0.22990967716772
 6  7.64784252315232 -0.29526140804080 -1.04401407010701
 6  8.88122720512051 -0.28927866136614 -0.22062465666567
 6  10.17250814381438 -0.66778387668767 -1.01014740914091
 6  10.30052723892389 -2.17352668756876 -1.36331799329933
 6  11.41262237933793 -0.31182207280728 -0.18014781608161
 6  12.71533870287029 -0.48715523142314 -0.92914345414541
 6  13.92752844064406 -0.02847961116112  0.04394160716072
 6  15.38273361736174 -0.02040465216522 -0.64554760506051
 6  15.75710981318132 -1.44377716351635 -1.18335561536154
 6  16.38510176417642  0.52678706480648  0.36048523322332
 6  17.82030773507351  0.60257838363836 -0.18377665756576
 6  18.72200760026003  1.35945779257926  0.75121748344835
 6  20.17131481128113  1.35181092569257  0.39365896949695
 6  20.43849407830783  2.16400204820482 -0.87240306170617
 6  20.92237011111111  1.99524389378938  1.48674537613761
 1 -3.96313657215722  3.50572895459546  1.34156867786779
 1 -10.05117886958696  3.97061464536454 -0.55690999359936
 1 -10.34649391119112 -2.33843389808981 -1.27677122462246
 1 -2.56169486018602 -0.93515317901790  2.26362360096010
 1 -2.39554919291929  1.92057054565456  1.60381474797480
 1 -1.96945066836684  1.19644513351335  3.74815502890289
 1 -3.44933972017202  2.24628408500850  3.79262382988299
 1 -3.68256923812381  0.45628999669967  3.71168505300530
 1 -2.22479500640064 -1.50802672307231 -0.26564155015502
 1 -2.10761496369637  0.30033212451245 -0.55263036463646
 1 -0.20021711571157  0.38644656815682  1.02600485238524
 1 -0.25400135383538 -1.38452142754275  1.10052292819282
 1 -4.71962413011301  6.02646782188219  0.56076785898590
 1 -6.01995666596660  6.85314511331133  1.56674136333633
 1 -4.85899912871287  5.46933210461046  2.16722040074007
 1 -9.68998649754976  5.82458539463946  0.58239608410841
 1 -9.08126876727673  8.05560414991499  0.29906049934993
 1 -7.39407444404440  7.61082165136514 -0.01442591319132
 1 -12.10317573037304  3.03944124942494 -2.44825112351235
 1 -13.18299351285128  1.99876551465147 -1.88213173687369
 1 -12.42397935933593  3.02987607300730 -0.66307780578058
 1 -12.03181570967097 -1.56899929812981 -1.05659586748675
 1 -13.13274927852785 -0.31022483548355 -1.78932628962896
 1 -12.90736120232023 -2.17041828102810 -3.39572256995700
 1 -12.63625379937994 -0.43997272317232 -4.08725630063006
 1 -11.21459480708071 -1.54594753875388 -3.56166528202820
 1 -8.92814371027103 -4.84079692799280 -1.68582616401640
 1 -8.01402510351035 -5.77549765796580 -0.66417064516452
 1 -9.73884605040504 -4.92870965796580 -0.15855411161116
 1 -3.38236836883688 -3.22087367186719 -0.16947360036004
 1 -1.50631172117212 -4.79846822412241  3.47364405140514
 1 -3.00101528892889 -5.75825646804680  3.52468969106911
 1 -1.59902132863286 -6.03573775087509  2.54665136803680
 1  2.56144081518152 -1.84414410431043 -1.80087416371637
 1  2.54084578477848  0.15007792619262 -2.12889490929093
 1  4.30832005630563 -1.05794380058006  0.55160753695370
 1  4.14798573487349  1.46671776807681 -2.59304264656466
 1  5.55221852025203  2.23073746394640 -1.63380773537354
 1  5.81768709150915  0.85667599779978 -2.83558485778578
 1  6.82700572387239  1.23602983068307 -0.00852335463546
 1  6.26486983498350 -0.24900814971497  0.77863887098710
 1  7.27028077017702 -1.34656572827283 -1.36053018171817
 1  7.77484901590159  0.25985286178618 -1.90188033493349
 1  8.97043314051405  0.80234285078508  0.17430139263926
 1  8.96433425622562 -0.92473082848285  0.49854447304730
 1  9.99892160366037  0.05587035333533 -1.94994882548255
 1  9.36943343974397 -2.61496854115411 -1.90040500170017
 1  11.03108619331933 -2.45859237183718 -2.19734592059206
 1  10.51575904950495 -2.69110073267327 -0.43376546724672
 1  11.35781054325432  0.68870327782778  0.43177514091409
 1  11.36131654135414 -1.05303764186419  0.52347982098210
 1  12.78611434713471 -1.42989985138514 -1.22230056495650
 1  12.66039494549455 -0.01752227322732 -1.92168053185319
 1  13.69366086928693  0.97290054555456  0.44221088158816
 1  13.91051714201420 -0.69428186548655  0.90468563826383
 1  15.32653504560456  0.51086094649465 -1.49084874437444
 1  15.63000500150015 -2.27945467136714 -0.44933253085309
 1  15.14875240704070 -1.62063025662566 -1.96389410981098
 1  16.74506256485649 -1.46698062666267 -1.66250835963596
 1  15.93834904460446  1.54046311901190  0.78399182018202
 1  16.40367206920692 -0.23096949264927  1.19634256595660
 1  18.08407759965997 -0.40048701250125 -0.71657766536654
 1  17.62621270247025  1.21942320082008 -1.06360984488449
 1  18.50793947674767  2.38213011261126  0.95940104100410
 1  18.68205448284828  0.74997860916092  1.78689504110411
 1  20.44944501120112  0.36200263606361  0.10147789818982
 1  20.13826065936594  3.15138412331233 -0.88903917341734
 1  21.66245235913591  2.38881475937594 -1.29264051805181
 1  19.97253808700870  1.66003740604060 -1.73935435873587
 1  20.72316233153315  1.28639794359436  2.39161860346035
 1  21.97773241374137  2.12137066826683  1.29571383758376
 1  20.56836936953695  2.99966364256426  1.81288721992199

