%nproc=4
%Mem=2GB
# td=(NStates=1) CAM-B3LYP/6-31G(d,p) 

TD

0 1
12 -7.15098676797680  0.60245848654865  0.09583763236324
 6 -4.93082196329633 -1.91181329262926  0.52469810471047
 6 -4.75610491679168  2.84331865916592  1.05488894609461
 6 -9.40345493429343  3.12827522692269 -0.32131346434643
 6 -9.51676270387039 -1.73150332533253 -0.86744485948595
 7 -5.16392917451745  0.41431269176918  0.74183170357036
 6 -4.32905051035103 -0.68496911731173  0.83274517731773
 6 -2.94012497369737 -0.39060433253325  1.31295673687369
 6 -3.06488677787779  1.06035716821682  1.66282908930893
 6 -4.38782686938694  1.46815719611961  1.08435469666967
 6 -3.06747453845385  1.20127661496150  3.13448697479748
 6 -1.89085336623662 -0.69139314941494  0.17777710351035
 6 -0.41517977197720 -0.22921115251525  0.54121270417042
 6  0.43976335473547 -0.57330076217622 -0.55012666446645
 8  0.20387093679368 -1.04039544334433 -1.68353763406341
 8  1.77437446244624 -0.37165207200720 -0.16810103020302
 7 -7.13373098159816  2.67307871517152  0.37944310111011
 6 -6.05646277727773  3.37327828172817  0.74678266226623
 6 -6.38944693439344  4.80552118251825  0.81334909940994
 6 -7.68905950135014  4.80799068576858  0.41157806480648
 6 -8.15001555475548  3.45136542784278  0.13328366756676
 6 -5.46405218641864  5.79475056635663  1.33353987918792
 6 -8.61338055045505  6.08728379637964  0.38609863176318
 6 -8.24722392019202  7.32342842714271 -0.00387464976498
 7 -9.08015305100510  0.67807428572857 -0.54723642894289
 6 -9.89708136713671  1.81133181578158 -0.64016914111411
 6 -11.24980972387239  1.40360135053505 -1.07074182378238
 6 -11.21939045974597  0.06700057735774 -1.18715798199820
 6 -9.88038792249225 -0.40790927902790 -0.88628793169317
 6 -12.28507674977498  2.34692697359736 -1.44689522042204
 6 -12.41199124482448 -0.73248431063106 -1.58449362656266
 6 -12.48564489648965 -0.94112799799980 -3.19794790019002
 7 -7.17454370647065 -1.40327968956896 -0.11950506920692
 6 -8.30421564386439 -2.21217715721572 -0.48550635653565
 6 -7.87921558905891 -3.61430561346135 -0.43877230623062
 6 -6.52787830983098 -3.55552986848685 -0.09843233533353
 6 -6.19036381458146 -2.21898805330533  0.05489711111111
 6 -8.71574191889189 -4.89398221712171 -0.75690523752375
 6 -5.35020155785579 -4.41970795609561  0.13602210211021
 8 -5.19847120892089 -5.63941659525953  0.16221225602560
 6 -4.21330474047405 -3.34187712181218  0.50043093509351
 6 -3.57666203040304 -3.77015309990999  1.81870305000500
 8 -3.68027168176818 -3.19470270307031  2.88191190649065
 8 -2.77347869576958 -4.79434758725873  1.62099018701870
 6 -2.18675131363136 -5.37927839713971  2.75328666566657
 6  2.79221299789979 -0.66796605430543 -1.13583895879588
 6  4.02826614901490 -0.41577542694269 -0.46586911561156
 6  5.02886649404940  0.35796912141214 -1.00594049424942
 6  5.05234265086509  1.13261779807981 -2.24142123322332
 6  6.43119957755775  0.41395020192019 -0.22853954015402
 6  7.68714645354535 -0.09500138203820 -0.85610527922792
 6  8.90424950735074  0.03229349584959 -0.07354994919492
 6  10.27429832283228 -0.43021011931193 -0.90486688108811
 6  10.02819000520052 -1.89639897479748 -1.43597525902590
 6  11.41792290939094 -0.26212710331033  0.08772897159716
 6  12.81083825282528 -0.39920643654365 -0.61550209000900
 6  14.05508119591959 -0.08169493269327  0.17980519351935
 6  15.37108245224523 -0.20086269796980 -0.50636368666867
 6  15.73580768296830 -1.56253903970397 -0.86839411921192
 6  16.44898815281528  0.34018840494049  0.49430861556156
 6  17.83514921922192  0.39685781158116 -0.21375965586559
 6  18.84610000950095  1.27696954375438  0.59666202790279
 6  20.32989066886689  1.36160190479048  0.19258886248625
 6  20.47393762266227  2.23557920592059 -1.07294311571157
 6  21.24373224732473  1.84757912731273  1.33701040264026
 1 -4.06216647514751  3.60009839153915  1.22984750575057
 1 -10.21711546324632  3.89799738363836 -0.21971627422742
 1 -10.23839310111011 -2.44523457815782 -0.93551709920992
 1 -2.67740643134313 -1.05863552725273  2.14387162576258
 1 -1.97190682868287  1.65518400700070  1.34326869336934
 1 -2.07479120242024  0.69232472147215  3.54557477087709
 1 -3.00785557175718  2.08686814341434  3.59853442094209
 1 -3.86336731793179  0.66963133083308  3.56599048354835
 1 -1.87469999689969 -1.82754867526753  0.01989700370037
 1 -2.31260546274627 -0.25044295299530 -0.99309441104110
 1 -0.39304639863986  0.84646256975698  0.89285153705371
 1 -0.18487444114411 -0.77700067546755  1.43580645654565
 1 -4.37568973667367  5.73762893799380  0.55396717891789
 1 -6.12006667696770  6.90678047684768  1.29703439263926
 1 -5.11413464226423  5.66529170057006  2.41182486118612
 1 -9.70165766466647  5.95559849594960  0.50243808830883
 1 -9.06112675307531  8.10325891539154 -0.08921832853285
 1 -7.04321935853585  7.30289085828583 -0.31123559415942
 1 -12.09900531333133  3.09287659295930 -2.31793809220922
 1 -13.13846906040604  1.76690232833283 -1.72528605230523
 1 -12.81193815521552  3.19057214261426 -0.78724022202220
 1 -12.26863939203920 -1.70143254145414 -1.24830503840384
 1 -13.35584158775877 -0.35899971297130 -1.18361571857186
 1 -13.34907537373737 -1.66474771397140 -3.65970896859686
 1 -12.47828800280028 -0.07245597149715 -3.72714028902890
 1 -11.52991633923392 -1.56273921792179 -3.37259637513751
 1 -8.59616051195120 -5.27725057335734 -1.90279786118612
 1 -8.31854555555556 -5.87774788298830 -0.20744497259726
 1 -9.98548071387139 -4.52994978197820 -0.23969222542254
 1 -3.47275740774077 -3.50207179167917 -0.23305995899590
 1 -1.57632872287229 -4.68807718501850  3.53100978797880
 1 -2.92639782718272 -5.68357900030003  3.44744196629663
 1 -1.60097152365237 -6.22702687978798  2.44124082698270
 1  2.81604627572757 -1.66815650555056 -1.42684676097610
 1  2.64789648984898 -0.08998608020802 -2.10931295109511
 1  4.37605682998300 -1.03725173137314  0.43093546974697
 1  3.94060499679968  1.12380347664766 -2.70221356365637
 1  5.34104740314031  2.07452184238424 -2.30575493009301
 1  5.74951027382738  0.54580491069107 -3.02873417271727
 1  6.59452247554756  1.43863009070907  0.01422892059206
 1  6.22868621662166 -0.18171142004201  0.75440644774477
 1  7.72672641474147 -0.96930800250025 -1.18765289398940
 1  7.95417694869487  0.51183806030603 -1.76591673857386
 1  9.06250234743474  1.10705332183218  0.21895585808581
 1  8.91668949174917 -0.73225158055806  0.73698831743174
 1  10.40078178967897  0.41423618991899 -1.63729756035604
 1  9.05053154955496 -2.08029507380738 -2.05031999319932
 1  10.83089617431743 -2.36544305690569 -1.93808999499950
 1  9.87338481208121 -2.65877750035003 -0.65694778547855
 1  11.36474123632363  0.74269867736774  0.36763872727273
 1  11.48049845954595 -0.93235557365737  1.03404087708771
 1  12.84298003370337 -1.50561742314231 -0.93367170207021
 1  12.74105301130113  0.28761824082408 -1.49735809960996
 1  14.10587209040904  0.97920117561756  0.76702336283628
 1  14.03135922622262 -0.96447888518852  1.07470263996400
 1  15.45252764486449  0.39381924232423 -1.38076773627363
 1  15.64764676567657 -2.27619434533453  0.00903330573057
 1  15.03696122792279 -2.02326051965197 -1.66654437483748
 1  16.74428248684869 -1.88977290589059 -1.30627273607361
 1  16.09725493519352  1.34058313101310  0.74951837283728
 1  16.54280598259826 -0.32480887658766  1.39716264796480
 1  18.30882007390739 -0.64357132093209 -0.24739074667467
 1  17.71522160336034  0.84082534103410 -1.35537902180218
 1  18.31354003680368  2.24076597619762  0.77831293219322
 1  18.84017029442944  0.95341895319532  1.65287163876388
 1  20.61043110981098  0.45960239603960  0.01045879627963
 1  20.12968980228023  3.11505048994899 -0.77411768126813
 1  21.50673678757876  2.28190406830683 -1.36935818981898
 1  19.77912874607460  1.73998540084008 -1.70310073337334
 1  21.16921693699370  1.20137944174417  2.24935437703770
 1  22.19849448994900  2.09511804300430  1.13304757095710
 1  20.74519705230523  2.90876455265527  1.60630656185619

