%nproc=4
%Mem=2GB
# td=(NStates=1) CAM-B3LYP/6-31G(d,p) 

TD

0 1
12 -7.08331000030003  0.57523576427643  0.10924897349735
 6 -4.82187106820682 -1.93112522382238  0.56995263016302
 6 -4.76380568686869  2.80117444474447  1.12555601280128
 6 -9.35611019981998  3.09887228662866 -0.31372270527053
 6 -9.49657068466847 -1.73232340734073 -0.85962407740774
 7 -5.09372215381538  0.47722898339834  0.65132265266527
 6 -4.36152375767577 -0.73229384978498  0.84170607340734
 6 -2.91605256645665 -0.44159943204320  1.16754219541954
 6 -3.01756204540454  1.04935606810681  1.60419322572257
 6 -4.39370745744574  1.45400578097810  1.12852911411141
 6 -2.90465825682568  1.15568205550555  3.11250477657766
 6 -1.96732101300130 -0.48118212831283 -0.04730540474047
 6 -0.46957521152115 -0.35866409780978  0.35263384628463
 6  0.56656603500350 -0.65588902100210 -0.79531118291829
 8  0.33194374407441 -1.09978138193819 -1.89218849914992
 8  1.75719274427443 -0.37165207200720 -0.32027624772477
 7 -7.08398600710071  2.67305871317132  0.36418157495750
 6 -6.02760989198920  3.41789274317432  0.77388537253725
 6 -6.34119210891089  4.78750938133813  0.81127889238924
 6 -7.71632222762276  4.87020690739074  0.50815772277228
 6 -8.12327288048805  3.47908820012001  0.16947728692869
 6 -5.39190497169717  5.88142923422342  1.34651117631763
 6 -8.63099231163116  5.97895296329633  0.43225324722472
 6 -8.26095529332933  7.20997708200820  0.16904264196420
 7 -9.02552758845884  0.66918339663966 -0.61190289558956
 6 -9.73911557055706  1.83020370297030 -0.70355547974797
 6 -11.20794553745375  1.46766775717572 -1.09516426602660
 6 -11.26296481718172  0.06333021032103 -1.21576084228423
 6 -9.91401128482848 -0.37370585868587 -0.90079938283828
 6 -12.35507374947495  2.30437271817182 -1.28487901880188
 6 -12.46470651635163 -0.71833289548955 -1.68788396559656
 6 -12.40785711771177 -0.92595648084808 -3.14932303770377
 7 -7.21588784088409 -1.37998736033603 -0.08153127182718
 6 -8.22703792609261 -2.18329426892689 -0.43222102800280
 6 -7.89867753525353 -3.59272345524552 -0.40867929692969
 6 -6.43435895789579 -3.48116243174317 -0.19515200730073
 6 -6.08817359555956 -2.20716687118712  0.15367698909891
 6 -8.63563390809081 -4.85856867576758 -0.65917546454645
 6 -5.30148668636864 -4.39286527182718  0.11377987788779
 8 -5.25064642644264 -5.59423207680768  0.08379441424142
 6 -4.16635004500450 -3.32330526462646  0.59606049804980
 6 -3.55287965216522 -3.67571365596560  1.96338751845185
 8 -3.73610726532653 -3.15810904370437  3.02862657795780
 8 -2.84035538343834 -4.77219537203720  1.82582067006701
 6 -2.26966960546055 -5.37959842914291  2.98727006400640
 6  2.76568034463446 -0.61617087478748 -1.35184055895590
 6  4.12174549694970 -0.50362421182118 -0.64066659535954
 6  5.09787339473947  0.29324264876488 -1.02103200340034
 6  5.07050446704670  1.13345788208821 -2.26759385048505
 6  6.42437889548955  0.37804661156116 -0.26883356955696
 6  7.71149888878888 -0.22513439533953 -0.90858052675268
 6  8.82472155455546 -0.14402413591359 -0.01937453165317
 6  10.11172206520652 -0.54536163446345 -0.82179857425743
 6  10.07364455065507 -1.95176451135114 -1.20290195169517
 6  11.40642175927593 -0.30335122572257 -0.06137593889389
 6  12.80462763176318 -0.50300681658166 -0.63185372517252
 6  13.99499518731873  0.02280551735174  0.20367758075808
 6  15.37604294829483 -0.29315192689269 -0.52733578387839
 6  15.71058516071607 -1.69580236603660 -0.89050633043304
 6  16.42922617661766  0.33126751285129  0.32289147384738
 6  17.77152285658566  0.61888001380138 -0.20241852175218
 6  18.68366376587659  1.26088793559356  0.81239360106011
 6  20.20982866266627  1.41467721232123  0.35336494009401
 6  20.28934916381638  2.30109575757576 -0.97170299169917
 6  21.05354322842284  2.03015738513851  1.41090779237924
 1 -4.01472173067307  3.54868325002500  1.46816133713371
 1 -10.13320707240724  3.81774935883588 -0.21324562716272
 1 -10.33863312511251 -2.45550560526053 -1.16344989248925
 1 -2.54099278997900 -1.07323698739874  1.93029026762676
 1 -2.18306794479448  1.66912540114011  1.33433780028003
 1 -1.80123384668467  1.02077756675667  3.38142835623562
 1 -3.32903768996900  2.22230168676868  3.52184675217522
 1 -3.76502748394840  0.40289465716572  3.52874675917592
 1 -1.98813134003400 -1.59391531193119 -0.61551653765377
 1 -2.28584278647865  0.11422351365137 -0.77881298289829
 1 -0.34608170217022  0.83559148264827  0.56241849374938
 1 -0.00702665636564 -0.99598257365737  1.15504838073807
 1 -4.81887405510551  6.00758593369337  0.46016779897990
 1 -6.12215688598860  6.79293909270927  1.26089077827783
 1 -4.83953718251825  5.62210738213821  2.20903458215822
 1 -9.68496599549955  5.73244618071807  0.37646549104910
 1 -8.92898353875388  8.02991158065807  0.22527312061206
 1 -7.31023606020602  7.59921049024903 -0.00620509110911
 1 -12.51468688148815  2.79868717401740 -2.44916121452145
 1 -13.41355656915691  1.67284292239224 -1.17724124782478
 1 -12.33953091449145  3.10808389378938 -0.48898039603960
 1 -12.44548707680768 -1.54955735393539 -1.25441564946495
 1 -13.31208721232123 -0.24711852485248 -1.26987434443444
 1 -13.44474494069407 -1.29420065926593 -3.36307930563056
 1 -12.23343351735174  0.10171144524452 -3.64588216321632
 1 -11.57379072667267 -1.62543548754875 -3.32119123462346
 1 -8.99407030293029 -4.74964781308131 -1.72859044044404
 1 -7.93471717271727 -5.89534964316432 -0.93774800290029
 1 -9.44470663646364 -5.27761454845485 -0.11483974017402
 1 -3.41207133913391 -3.66774835933593 -0.17652430543054
 1 -1.71376246624662 -4.74599297659766  3.55213190019002
 1 -2.97968315571557 -5.81286192859286  3.53277049914991
 1 -1.72448387488749 -6.06391056815682  2.38576527942794
 1  2.76994166526653 -1.77796748664866 -1.41976605290529
 1  2.54802650285029 -0.00043712531253 -2.15371739153915
 1  4.35806503080308 -1.25924393059306 -0.00540816461646
 1  4.02965390169017  1.10794189048905 -2.82618596089609
 1  5.27697099549955  2.33829822002200 -2.06382073667367
 1  5.91780710351035  0.98935926612661 -2.81983328262826
 1  6.58227125042504  1.42880910861086  0.09043654135414
 1  6.35287863586359 -0.26139938883888  0.64489549664967
 1  7.70593433553355 -1.40581165286529 -1.05470959965997
 1  7.81886341734173  0.22284916141614 -2.07437758465847
 1  9.15051114831483  1.08254087058706  0.10812477497750
 1  8.62702052485248 -0.64458281368137  0.80052467106711
 1  10.26934864636464 -0.01935716941694 -2.04134796539654
 1  9.25575207160716 -2.16624366866687 -1.83480844204421
 1  10.95360844554455 -2.30005651825183 -1.92138832483248
 1  10.15957343094309 -2.68523014561456 -0.47805989668967
 1  11.46399116131613  0.67142154965497  0.45062702610261
 1  11.54747515721572 -1.16786912501250  0.74309178217822
 1  12.75943167886789 -1.59061592299230 -0.78416675157516
 1  12.94834374037404 -0.16669719071907 -1.59209757355736
 1  13.92770427362736  1.21366462196220  0.22892955345535
 1  14.43292938323832 -0.22635507280728  1.29646481618162
 1  15.14336672877288  0.27901776217622 -1.38851851135114
 1  15.81665366636664 -2.21710843674367  0.06181858425843
 1  14.74882241404140 -2.05305349894989 -1.83368108850885
 1  16.57168522712271 -1.93801773037304 -1.31414352315231
 1  15.98642385208521  1.43104217691769  0.65455887688769
 1  16.43262496449645 -0.17210360606061  1.43453638533853
 1  17.99488868076808 -0.37201416521652 -0.76636264386439
 1  17.61103118431843  1.33726498499850 -1.03175665956596
 1  18.52495117791779  2.43597549714972  0.92517761866187
 1  18.73442972037203  0.54169778107811  1.72409876147615
 1  20.57562762946295  0.32151858765877  0.15739348974897
 1  19.61677851115111  3.23205219011901 -0.90996126562656
 1  21.37453356725673  2.64308018591859 -1.15608686268627
 1  20.01791262446244  1.78383978627863 -1.74596501980198
 1  21.09669968526853  1.07184648844885  2.16573601520152
 1  22.07745238573857  2.11580011121112  0.94567883408341
 1  20.56747928052805  2.94519819601960  1.76701263246325

