%nproc=4
%Mem=2GB
# td=(NStates=1) CAM-B3LYP/6-31G(d,p) 

TD

0 1
12 -7.09385105440544  0.55220346104610 -0.05392734413441
 6 -4.76922580368037 -1.98565067636764  0.34721035593559
 6 -4.77861716801680  2.83347767506751  1.12089554675468
 6 -9.43672826162616  3.05515791519152 -0.29756108910891
 6 -9.52877390499050 -1.73092326732673 -0.87030514551455
 7 -5.02946572817282  0.42637389788979  0.73192071247125
 6 -4.29485709100910 -0.80008062846285  0.73456535933593
 6 -2.93311427262726 -0.41716698879888  1.23392883408341
 6 -3.07944823402340  1.07607874037404  1.71194400080008
 6 -4.39508759545955  1.46753713411341  1.07025328652865
 6 -2.89901769276928  1.12313880118012  3.21862538863886
 6 -1.89230351125113 -0.50735474557456  0.12072139793979
 6 -0.42736099009901 -0.41996022742274  0.57392597549755
 6  0.58119749814982 -0.51030446254625 -0.70736238803880
 8  0.06685723542354 -0.84238564236424 -1.80444972527253
 8  1.76818384338434 -0.37497240404040 -0.33986820692069
 7 -7.07157476597660  2.60294170147015  0.26530168696870
 6 -6.04519165016502  3.25983693759376  0.78944692869287
 6 -6.37569555925593  4.75266589698970  0.85161292579258
 6 -7.67674827022702  4.85278516521652  0.47371427842784
 6 -8.19536008920892  3.42498278957896  0.12681302050205
 6 -5.59673545474547  5.86803789508951  1.26325285048505
 6 -8.64115332773277  5.92613768176818  0.39854987688769
 6 -8.29407860566057  7.26268235253525  0.20349608730873
 7 -9.12310734643464  0.64039051735174 -0.50514221952195
 6 -9.85358701770177  1.72075275787579 -0.72388751295130
 6 -11.24277902080208  1.44652564296430 -1.10308505810581
 6 -11.25545406610661  0.07493137043704 -1.23070233643364
 6 -9.92936281998200 -0.45222371047105 -0.84450375327533
 6 -12.23771201330133  2.55005728662866 -1.25171570247025
 6 -12.44951499719972 -0.74916597879788 -1.65407058425843
 6 -12.35812214421442 -1.02371625682568 -3.18506661206121
 7 -7.17679393149315 -1.43930329192919 -0.21279439813981
 6 -8.25151037333733 -2.24443038253825 -0.54081188708871
 6 -7.84473214071407 -3.60060424332433 -0.54152258125813
 6 -6.51480700270027 -3.57850216571657 -0.15784827692769
 6 -6.16193097129713 -2.20404655915592  0.07485910731073
 6 -8.68679902460246 -4.68661148004800 -0.81620116711671
 6 -5.35170170787079 -4.44942092739274  0.29973847374737
 8 -5.22711407320732 -5.62797545114511  0.21866790159016
 6 -4.14435784578458 -3.48811174527453  0.57865875787579
 6 -3.54857922212221 -3.73740982558256  1.93934511421142
 8 -3.88717237183718 -2.99148238103810  2.91677539283928
 8 -2.78312966086609 -4.81456960946095  1.87390547854785
 6 -2.13230586908691 -5.19995046434644  3.15653699069907
 6  2.85888966556656 -0.62987224492449 -1.37636301120112
 6  4.18643196559656 -0.53788763816382 -0.76883941264126
 6  5.02906651405141  0.38595191969197 -1.01241114131413
 6  5.08253567016702  1.41386592289229 -2.21897898899890
 6  6.45388184578458  0.56476528342834 -0.25211189738974
 6  7.62757049594959 -0.05436731863186 -1.02472214091409
 6  8.87097618001800 -0.05303503700370 -0.11915450965097
 6  10.15487638063806 -0.58913601190119 -0.79942633703370
 6  10.17537472367237 -1.99362869776978 -1.37726938843884
 6  11.42258337543754 -0.20245113571357  0.10659085778578
 6  12.74573174217422 -0.50798731463146 -0.62228276807681
 6  13.91130681848185 -0.23047981118112  0.37404461746175
 6  15.28279362336234 -0.19828243994399 -0.42053510381038
 6  15.62143624582458 -1.64885767156716 -0.90483776357636
 6  16.43109636363636  0.26502088818882  0.50483966866687
 6  17.81965767006701  0.63789191499150 -0.22553083298330
 6  18.88994439393939  1.26149799659966  0.72534489618962
 6  20.24970265006501  1.28027377197720  0.16491609520952
 6  20.38957918681868  2.23398904690469 -1.03831965336534
 6  21.19025689978998  1.82764713411341  1.21821852345235
 1 -4.10902116061606  3.49261764346435  1.65601012201220
 1 -10.10212396409641  3.83808139203920 -0.41086538913891
 1 -10.31014027582758 -2.51166122082208 -1.26873042054205
 1 -2.68492718341834 -1.03929359305931  1.94000123872387
 1 -2.35344498249825  1.67852634123412  1.20585495199520
 1 -1.87008073137314  0.51377686668667  3.49735994939494
 1 -2.71219600580058  2.19635909250925  3.53345791329133
 1 -3.73387436863686  0.87320168786879  3.78364224872487
 1 -1.99797232413241 -1.65244116451645 -0.10011499749975
 1 -2.15433963616362  0.12633472477248 -0.73620872247225
 1 -0.25512260626063  0.66935485898590  1.00898315021502
 1 -0.32444839853985 -1.14753772917292  1.38376125202520
 1 -4.59435160286029  6.09934510961096  0.56951873407341
 1 -6.08752342264226  6.75818561736174  1.62350703990399
 1 -4.82900612941294  5.55349052045205  2.09756343504350
 1 -9.53636113501350  5.57728066416642  0.51179902440244
 1 -8.96909755015501  8.06125471497150  0.01868246154615
 1 -7.29661469806981  7.33077364656466 -0.01441591219122
 1 -11.98964437723773  3.05874317961796 -2.02377867626763
 1 -13.28631384488449  2.15804144224422 -1.24470799449945
 1 -12.15110207160716  3.41124420982098 -0.46329782778278
 1 -12.29596212431243 -1.71891428962896 -1.10586079397940
 1 -13.36796279987999 -0.03979779277928 -1.53523088008801
 1 -13.14456492269227 -1.82678391759176 -3.29795279297930
 1 -12.71803197719772 -0.16166489238924 -3.58929650465047
 1 -11.23460680828083 -1.22949589358936 -3.41422053755376
 1 -9.17022791869187 -4.67928077637764 -1.81397897929793
 1 -8.26443014401440 -5.80521062926293 -0.47430165826583
 1 -9.55887805360536 -4.68140492749275 -0.11563982018202
 1 -3.51459159115912 -3.70211179567957 -0.15481213421342
 1 -1.45633672367237 -4.43160153745375  3.56064275127513
 1 -2.92930811821182 -5.52051269366937  3.57804502660266
 1 -1.34165559205921 -6.05394957205721  2.82099880278028
 1  2.45383005410541 -1.68566825672567 -1.58333240954095
 1  2.84465616581658 -0.04158123972397 -2.14020604040404
 1  4.43101232553255 -1.03039104530453  0.10775315151515
 1  4.13608454475448  1.22545364166417 -2.66414975727573
 1  5.14736803520352  2.39006339653965 -1.68918327292729
 1  5.96494181698170  1.23899422962296 -2.69931123042304
 1  6.45688871217122  1.57556378407841 -0.05183768606861
 1  6.57435078307831  0.08447519861986  0.67038804590459
 1  7.35498924102410 -1.06620769246925 -1.28729285798580
 1  8.02339387038704  0.46021289778978 -1.77120726762676
 1  8.95384148134814  0.89908252475247  0.32950691319132
 1  8.82774059685969 -0.69936829222922  0.83226784538454
 1  10.31912362386239  0.15295006130613 -1.62786661726173
 1  9.16826332273227 -1.98289533383338 -1.97433239443944
 1  11.01032411711171 -2.10312682528253 -1.97019320532053
 1  9.86794426802680 -2.53054467706771 -0.44750684138414
 1  11.36808157035703  0.91215562306231  0.65962792619262
 1  11.40769117881788 -0.94657699579958  1.13679115211521
 1  12.74273000870087 -1.47835469686969 -1.01731006590659
 1  12.93636254225423  0.17041652065207 -1.63668203200320
 1  13.81939344254426  0.77557081258126  0.77022368286829
 1  13.91848793909391 -0.92150458775878  1.26175134483448
 1  15.19795218731873  0.43582344274427 -1.27728738823882
 1  15.56956895789579 -2.29853657955796  0.03846624902490
 1  14.97040457225722 -2.11741993559356 -1.53553127352735
 1  16.53730178877888 -1.70251418001800 -1.35462757155716
 1  16.22748795849585  1.36251532423242  0.89260268126813
 1  16.57428913091309 -0.42625902160216  1.47723065476548
 1  18.44554374627463 -0.33900086388639 -0.62501850945095
 1  17.48411849304930  1.29472073057306 -1.13826731063106
 1  18.54967365016502  2.26148804840484  1.13427852875288
 1  18.83965024242424  0.69090270157016  1.67872422402240
 1  20.69211927862786  0.22782921872187  0.00116786718672
 1  19.98799563286329  3.19604858975898 -0.81773204270427
 1  21.34115022892289  2.19791566946695 -1.45616687068707
 1  19.66823765696569  1.85986738903890 -1.88690911421142
 1  20.98558857415742  1.24234353815382  2.21453089468947
 1  22.36871151165117  1.66244477567757  0.85477974417442
 1  21.00562309490949  2.94699837603760  1.35123105430543

