%nproc=4
%Mem=2GB
# td=(NStates=1) CAM-B3LYP/6-31G(d,p) 

TD

0 1
12 -7.13239490879088  0.61002924362436  0.12596064466447
 6 -4.82074095519552 -1.96689880118012  0.44906054095410
 6 -4.80360966726673  2.81347567486749  1.10448390559056
 6 -9.38379296809681  3.14684708410841 -0.43576490949095
 6 -9.61329235683568 -1.66236641164116 -0.94445256025603
 7 -5.14935771737174  0.36058731923192  0.73932145254525
 6 -4.33948155345535 -0.68746936733673  0.77011891469147
 6 -2.94733569476948 -0.35162043414341  1.27000244144414
 6 -3.05555584478448  1.10939207170717  1.71574438083808
 6 -4.38485657235724  1.54466484688469  1.14648090929093
 6 -2.99465725672567  1.21990847814782  3.29415294139414
 6 -1.93112739363936 -0.71518552865287  0.13506283208321
 6 -0.45780403440344 -0.59374760616062  0.56459504240424
 6  0.50318969736974 -0.83302673477348 -0.56590824262426
 8  0.23022357205721 -1.19438084188419 -1.63733301360136
 8  1.77762478747875 -0.56178108490849 -0.10806502660266
 7 -7.09967757625763  2.65555696299630  0.38781393819382
 6 -6.06041317231723  3.31755270917092  0.88360634463446
 6 -6.35915390509051  4.66095672607261  0.75286305080508
 6 -7.61746234163416  4.85334522122212  0.43195010201020
 6 -8.11443199639964  3.48716900820082  0.09787012621262
 6 -5.54140992219222  5.75367645894589  1.52721924712471
 6 -8.52008122052205  6.09244431243124  0.22262228412841
 6 -8.06854605240524  7.33569965426543 -0.03066732903290
 7 -9.08190322602260  0.69266574487449 -0.51262296759676
 6 -9.87315897489749  1.86750743334333 -0.63235836003600
 6 -11.20888563146315  1.51432242264226 -1.05404015361536
 6 -11.26462498319832  0.18776265356536 -1.23360262646265
 6 -9.94214409810981 -0.31381987008701 -0.81150045294529
 6 -12.31680992309231  2.55606788768877 -1.29151968286829
 6 -12.42057210291029 -0.66602766496650 -1.67278245544554
 6 -12.35702203420342 -1.23800768596860 -3.16723482888289
 7 -7.26997324942494 -1.39083844544454 -0.11924504320432
 6 -8.35687090939094 -2.27120305980598 -0.55743354925493
 6 -7.85234290179018 -3.57492167506751 -0.56831526052605
 6 -6.53955947794780 -3.43643795929593 -0.07393988608861
 6 -6.20802558075808 -2.20759691419142  0.14961658305831
 6 -8.70282062676268 -4.77139995889589 -0.89484903190319
 6 -5.32010854855486 -4.32131811711171  0.21160966086609
 8 -5.19267062886289 -5.44977763136314  0.18894492929293
 6 -4.19888329832983 -3.38084101820182  0.52039293129313
 6 -3.62587695189519 -3.72446853145315  1.87061824152415
 8 -3.77425107970797 -3.22050528332833  2.98049176447645
 8 -2.75630697859786 -4.73494164666467  1.69403749174917
 6 -2.28570120862086 -5.45229569886989  2.81966330333033
 6  2.78923269986999 -0.69496875457546 -1.27720309520952
 6  4.08230155255526 -0.60455430483048 -0.64682721142114
 6  5.18898250565057  0.30040336483648 -0.99546944714471
 6  5.01981939853985  1.06030056635664 -2.31353844494449
 6  6.54245070267027  0.31250005690569 -0.16264295049505
 6  7.66663440234023 -0.03264514641464 -1.06159582828283
 6  8.98606768916892 -0.07397713121312 -0.21724431863186
 6  10.26690758375838 -0.41440853915392 -0.98242463686369
 6  10.17048423462346 -1.90048938383838 -1.60096175767577
 6  11.49095021212121 -0.25702659325933 -0.11897169846985
 6  12.77944511351135 -0.48063457935794 -0.78535907570757
 6  13.91326701450145 -0.24725148834883  0.24444165716572
 6  15.37020236423642 -0.30418303000300 -0.45595864616462
 6  15.81047514971497 -1.75743852965297 -0.58519579937994
 6  16.42037529152915  0.52015640174017  0.40840002470247
 6  17.82103780808081  0.67702582838284 -0.13134141404140
 6  18.75894129362936  1.42196404320432  0.76396875857586
 6  20.21004868466847  1.46856260086009  0.30696029962996
 6  20.32109233813381  2.24729037703770 -1.04897071847185
 6  21.12396027012701  2.09143351275128  1.27207390899090
 1 -3.92464272277228  3.52530091179118  1.28095261626163
 1 -10.10876462816282  3.84286187008701 -0.60108441104110
 1 -10.42335159695970 -2.32032208690869 -1.19673322082208
 1 -2.61210990169017 -1.05557522122212  2.09003624222422
 1 -2.09890952895290  1.67010549914991  1.36950131663166
 1 -1.92572629592959  1.04899038803880  3.73494370777078
 1 -3.43053783998400  2.28449790639064  3.65040960846085
 1 -3.78849983118312  0.62742711041104  3.85331921642164
 1 -1.86703923082308 -1.71537745814581 -0.21518650465046
 1 -2.32407660986099 -0.02700060876088 -0.62896799839984
 1 -0.18652574657466  0.36377430093009  1.09016126802680
 1 -0.29619557325733 -1.26701967736774  1.36016889278928
 1 -4.85319748744875  6.38882405750575  0.85255703790379
 1 -6.20443511381138  6.56879667846785  1.78570325952595
 1 -4.92483571237124  5.31318649004901  2.38628230693069
 1 -9.51224872377238  5.92849578567857  0.34250209470947
 1 -8.83277391779178  7.99495808530853 -0.47378678537854
 1 -7.11019605620562  7.63968453765377 -0.51160563116312
 1 -11.97202261506151  3.08155546084608 -2.28138443684368
 1 -13.54292950645064  2.05781141924192 -1.36998052175217
 1 -12.31028799019902  3.35058814421442 -0.47318881688169
 1 -12.41271379947995 -1.53305570377038 -0.85580578847885
 1 -13.22082808640864 -0.23367718071807 -1.31163852085209
 1 -13.15068553475347 -1.86312755195520 -3.28602159985999
 1 -12.43237341134114 -0.41111983788379 -3.89509708470847
 1 -11.61700504810481 -1.75945888988899 -3.34257337283728
 1 -9.04396529242924 -4.53261610991099 -1.91246882828283
 1 -8.10346404740474 -5.69219932813281 -0.67254148224822
 1 -9.54073623942394 -4.77068385538554 -0.18130638683868
 1 -3.36503663566357 -3.40963254775478 -0.21679833283328
 1 -1.85802689268927 -4.65291366866687  3.61740842784278
 1 -3.07479266666667 -6.04912555495549  3.40200742284228
 1 -1.57968939543954 -6.26000017711771  2.38863556645665
 1  2.47065173627363 -1.70511020092009 -1.57625170147015
 1  2.65035673587359  0.15789870827083 -1.96660868066807
 1  4.39636886118612 -1.18093609980998  0.33414579077908
 1  3.95512644894489  1.12106320262026 -2.47155049734973
 1  5.37208050645065  2.29359374957496 -2.08126248084809
 1  5.59879520232023  0.65917624782478 -3.20269156845685
 1  6.57076009930993  1.36588281598160  0.47517501520152
 1  6.51784513251325 -0.20366361526153  0.74355536263626
 1  7.46634037613761 -0.99441051275128 -1.57597172587259
 1  7.82568409940994  0.80201707820782 -1.73548369526953
 1  8.95185128232823  0.82734535103510  0.22120608310831
 1  8.77953577637764 -0.76159451485148  0.54469908850885
 1  10.55209692119212  0.29277404370437 -1.99684351495149
 1  9.30804730113011 -2.03417046134613 -2.27909287048705
 1  11.03864694939494 -2.07031354395440 -2.48769495549555
 1  10.12626009960996 -2.55332695529553 -0.75761785248525
 1  11.36105086728673  0.77004141164116  0.20945290869087
 1  11.36628703840384 -0.84367670577058  0.83409088208821
 1  12.94391012671267 -1.61665852725273 -1.07722605750575
 1  12.95353425942594  0.04815429442944 -1.71880024382438
 1  13.61328283148315  0.94105736123612  0.40617727822782
 1  13.77001309160916 -0.90830326762676  0.93403857355736
 1  15.33038543064306  0.27423728412841 -1.28126778627863
 1  16.25895789678968 -2.12071879777978  0.54784718711871
 1  15.13045057685769 -2.21863005660566 -1.09629735013501
 1  16.74260231883189 -1.88700262886289 -0.95857796659666
 1  16.05362057175718  1.50649972267227  0.87468088908891
 1  16.77195889788979  0.05494909920992  1.42366529822982
 1  18.31761095299530 -0.33869083288329 -0.34877088468847
 1  17.81574165536554  0.93299455795580 -1.22545602950295
 1  18.30222890569057  2.50095199479948  0.87229233013301
 1  18.95781205860586  1.00631424272427  1.67895424702470
 1  20.44729479617962  0.43884031983198  0.00339809020902
 1  20.00817765106511  3.33362234713471 -0.96387665716572
 1  21.46664277817782  2.21757763566357 -1.52104335833583
 1  19.71128196139614  1.80861226352635 -1.68570899419942
 1  21.15585560086009  1.28928823262326  2.04973441504150
 1  22.25397003750375  1.98236676787679  0.95746001220122
 1  20.87695022762276  2.98148182438244  1.68481441264126

