%nproc=4
%Mem=2GB
# td=(NStates=1) CAM-B3LYP/6-31G(d,p) 

TD

0 1
12 -7.15664733403340  0.60331857255726  0.11059910851085
 6 -4.87345622672267 -1.97327943924392  0.52400803570357
 6 -4.87131643794379  2.88266259355936  1.16713017021702
 6 -9.47802239103910  3.05524792419242 -0.22031336433643
 6 -9.49966099369937 -1.80040021502150 -1.05909402440244
 7 -5.13752653425343  0.47270853135314  0.76280380078008
 6 -4.28124572987299 -0.71685230563056  0.71309321212121
 6 -2.86332729392939 -0.31621689378938  1.19402484368437
 6 -3.01503179237924  1.15840697319732  1.62738554495450
 6 -4.46225431213121  1.59769014941494  1.11715797699770
 6 -2.93288107910791  1.36221270857086  3.14956848294829
 6 -1.99978425932593 -0.41569557965797 -0.06356703090309
 6 -0.55045329932993 -0.35706393779378  0.49492807570757
 6  0.56931631003100 -0.69614304640464 -0.57371902370237
 8  0.28408895859586 -1.12498390219022 -1.67772705300530
 8  1.78888591359136 -0.30584549134913 -0.15633985408541
 7 -7.17279488798880  2.65333674097410  0.43220837763776
 6 -6.20334746574657  3.41251220512051  0.88184616861686
 6 -6.51789977967797  4.82806343674367  0.93481124562456
 6 -7.90469106450645  4.83444333103310  0.68653556055606
 6 -8.32899345254525  3.45316560786079  0.20671101030103
 6 -5.71119690089009  5.86158725002500  1.40919744494449
 6 -8.78407762016202  6.07226229422942  0.48923894579458
 6 -8.35162436023602  7.30205628992899  0.21490722842284
 7 -9.08342337803780  0.68545502380238 -0.53809551485149
 6 -10.01008266726673  1.76762744534453 -0.54215934013401
 6 -11.31371611451145  1.37859885028503 -0.98816356595660
 6 -11.16519504020402  0.05628950625062 -1.36347561376138
 6 -9.89604948864887 -0.37334582268227 -0.91303060596060
 6 -12.43409165126513  2.35348762966297 -1.39770030093009
 6 -12.33357340304030 -0.77366842904290 -1.90409558675868
 6 -12.08356468846885 -1.17748163336334 -3.31645975137514
 7 -7.22727897999800 -1.35506486808681 -0.19143226192619
 6 -8.23389861216122 -2.22543848334833 -0.58641644754475
 6 -7.85265293279328 -3.63629781268127 -0.57442587158716
 6 -6.48847436943694 -3.47990230573057 -0.09424191629163
 6 -6.15078985718572 -2.11476763126313  0.06322794419442
 6 -8.59185953065306 -4.88769158805881 -0.94538408540854
 6 -5.32085862356236 -4.35450143544355  0.17446594649465
 8 -5.14515587738774 -5.52355500910091  0.21238727352735
 6 -4.11051446144614 -3.23789672377238  0.59879077107711
 6 -3.53185754995500 -3.66296238083808  1.86171735143514
 8 -3.73925758035804 -3.09094232703270  2.91685540084008
 8 -2.66530787868787 -4.72115026752675  1.66985507350735
 6 -2.12726536503650 -5.19871034033403  2.91056239323932
 6  2.83950772737274 -0.64990424812481 -1.09607498239824
 6  4.15697902030203 -0.41348519791979 -0.37843037173717
 6  5.19644325172517  0.26011933643364 -0.98685858605861
 6  5.06547396399640  0.99813434973497 -2.42193928502850
 6  6.44792124972497  0.31471027792779 -0.21651833803380
 6  7.66659439833983 -0.40639252115212 -1.00092976167617
 6  8.89284836723672 -0.28173790729073 -0.15387798199820
 6  10.15593648664866 -0.67315441374137 -0.80535693009301
 6  10.26845403160316 -2.14157349224922 -1.14908657015702
 6  11.44242535963596 -0.30276116671667  0.01483168186819
 6  12.84943211221122 -0.53833034893489 -0.62748328812881
 6  13.99673536133613  0.03304654145415  0.26820403340334
 6  15.51588693269327 -0.13121573327333 -0.44928797909791
 6  15.60212431463146 -1.65769855565557 -0.86192347214721
 6  16.54658791279128  0.40414480058006  0.41071025572557
 6  17.84931063536354  0.64714284008401 -0.21578985888589
 6  18.83700910041004  1.25345719251925  0.72505486718672
 6  20.23800147994800  1.40813655825583  0.14554415801580
 6  20.33588381728173  2.02764841284128 -1.12701852325233
 6  21.20177805190519  2.00586495589559  1.18532523412341
 1 -4.27525778427843  3.74106248794880  1.64802932393239
 1 -10.19304305600560  3.85903348724873 -0.10464476707671
 1 -10.29560882268227 -2.39525958065807 -1.45250879837984
 1 -2.59423811451145 -0.98778844254425  1.94627186578658
 1 -2.26272591059106  1.47879636823682  1.18796316281628
 1 -2.14351807510751  1.01501699069907  3.44944515791579
 1 -3.08732351855186  2.41910136673667  3.46014058155816
 1 -3.81046202740274  0.64838920662066  3.58594247874788
 1 -2.26131865876588 -1.44499041944194 -0.45747073307331
 1 -2.13450765296530  0.69573166446645 -0.61739684128413
 1 -0.27185427942794  0.62170009350935  1.01345359725973
 1 -0.56033198689869 -1.29761273667367  1.03626650255025
 1 -4.96585875357536  6.45259043414342  0.74088587078708
 1 -6.15270994129413  6.84864466326633  1.83435812501250
 1 -4.86564979377938  5.68753392479248  2.10891457015702
 1 -9.81493899279928  5.80436337243724  0.52013985848585
 1 -9.09045968636864  8.21396998649865  0.15663625692569
 1 -7.39393443004300  7.64107467666767  0.03241877127713
 1 -11.99906531933193  2.84583188848885 -2.20297659605961
 1 -13.44797001050105  1.90606624472447 -1.62261578527853
 1 -12.70138710011001  2.98032111751175 -0.59803130113011
 1 -12.38161068916892 -1.54764716291629 -1.17145735363536
 1 -13.26656265986599 -0.35261907490749 -1.66766412341234
 1 -13.04640510671067 -1.93844508370837 -3.52441543924392
 1 -12.29088926292629 -0.39095782168217 -4.24159173417342
 1 -11.34011735933593 -1.76416936093609 -3.49264838033803
 1 -9.03768466436644 -4.79753260156016 -1.93751133253325
 1 -8.02434613561356 -5.66389649784978 -0.89402363046305
 1 -9.46513867966797 -5.00518730573057 -0.18307656385639
 1 -3.36160629262926 -3.42039362386239 -0.15453210621062
 1 -1.50737182718272 -4.46319469676968  3.44256094309431
 1 -2.82035722312231 -5.85495613801380  3.40471769386939
 1 -1.12408383488349 -5.71487566466647  2.69018572147215
 1  2.64597926902690 -1.74915460536054 -1.35310938723872
 1  2.79726142634263 -0.06386346794679 -2.08453047284728
 1  4.26375559985999 -0.78990699689969  0.61745412161216
 1  4.13535447174718  1.15107620392039 -2.94129747204720
 1  5.39874317271727  1.99321371157116 -2.46831118571857
 1  5.76359168196820  0.43576390659066 -3.00302160146015
 1  6.77114013731373  1.27209343704370 -0.15475797809781
 1  6.51514486248625 -0.16506975587559  0.81534254135413
 1  7.37431117321732 -1.53930500220022 -1.02834696339634
 1  7.63469500050005  0.17260413691369 -2.04809495639564
 1  9.34934103130313  0.86138875537554 -0.11869790729073
 1  8.76322414521452 -0.71318967436744  1.02777739633963
 1  10.18856056755676 -0.23006824052405 -1.70591442204220
 1  9.32568906530653 -2.33480052435244 -1.85792075327533
 1  11.26959004370437 -2.58863537613761 -1.43126931293129
 1  10.19220669426943 -2.68573019561956 -0.30678276897690
 1  11.59458422062206  0.79116352385238  0.27603956735674
 1  11.40476088578858 -0.69651198929893  0.97286475947595
 1  13.14013974967497 -1.62795965736574 -0.79347768266827
 1  12.84869377537754  0.10594007300730 -1.48871723552355
 1  13.77614911811181  1.02968622412241  0.34795145564556
 1  14.10154624492449 -0.62300473777378  1.08381355105511
 1  15.50204259635964  0.26849671007101 -1.48025768526853
 1  15.63372537353735 -2.46123284918492  0.01236363876388
 1  14.79303683548355 -1.97376557015702 -1.53917163756376
 1  16.60423848244825 -1.84187811641164 -1.29749185798580
 1  16.07419262896289  1.38350742344234  0.71009443044304
 1  16.55265696769677 -0.11189758545855  1.35298823052305
 1  18.38054724662467 -0.43651061486149 -0.30625663326333
 1  17.84050413161316  1.31248250675067 -1.15678916281628
 1  18.39477816061606  2.06461836143614  1.10658575947595
 1  18.87269354675468  0.52346595789579  1.64976132773277
 1  20.44177424412441  0.27118355415542  0.04228197859786
 1  20.27099393269327  3.13576256115612 -0.94595486498650
 1  21.29502561646165  1.96691256915692 -1.99665091909191
 1  19.66212704590459  1.42123352565257 -1.81689211251125
 1  21.24467448274827  1.55363466726673  2.24493393499350
 1  22.08595323582358  1.95394392559256  0.49568383458346
 1  21.07300983358336  3.11080475667567  1.28761469266927

