%nproc=4
%Mem=2GB
# td=(NStates=1) CAM-B3LYP/6-31G(d,p) 

TD

0 1
12 -7.14772644194419  0.61345958665867  0.13540158875888
 6 -4.85396427752775 -1.95048716001600  0.44805043994399
 6 -4.77492679897990  2.82310663796380  1.04318777597760
 6 -9.49967455625563  3.07101950135013 -0.23722505550555
 6 -9.56867789538954 -1.84887506250625 -0.87515563056306
 7 -5.11781456305631  0.44746600710071  0.78778629902990
 6 -4.40113771907191 -0.73225384578458  0.82161406420642
 6 -3.02387334853485 -0.38450372247225  1.18754419561956
 6 -2.99812010121012  1.11462259475948  1.61332413881388
 6 -4.32994108080808  1.52037241764176  1.07261352255226
 6 -2.81281907290729  1.34900138743874  3.08425195129513
 6 -1.96384066496650 -0.61852586268627  0.05805513131313
 6 -0.47669592359236 -0.36909514091409  0.54872345524552
 6  0.50293967236724 -0.66241967406741 -0.48639029082908
 8  0.19325987568757 -1.01566297009701 -1.61442072237224
 8  1.76653367836784 -0.53125803260326 -0.05302952305231
 7 -7.05303291179118  2.59951135843584  0.26259141594159
 6 -6.03431056205620  3.38616957085709  0.71334931893189
 6 -6.37814580428043  4.73814444484448  0.79506727122712
 6 -7.73898449384938  4.79706959365937  0.42629953695370
 6 -8.09565011821182  3.45517580888089  0.06789712891289
 6 -5.53905968716872  5.84984607590759  1.32126865206521
 6 -8.56875608800880  6.03376844484448  0.27025704760476
 6 -8.20471966976698  7.29915599989999  0.16969270697070
 7 -9.22627766346635  0.61901838013801 -0.38349005430543
 6 -9.87904956395639  1.74122480508051 -0.59206433063306
 6 -11.15975071797180  1.43639462986299 -1.01008575817582
 6 -11.26868538923892  0.12773665096510 -1.19515878207821
 6 -9.91845172887289 -0.46613510161016 -0.77950725362536
 6 -12.34422266436644  2.50955323622362 -1.21695222612261
 6 -12.43393343904390 -0.65923698589859 -1.77506268346835
 6 -12.35563189518952 -0.85202908810881 -3.21657976337634
 7 -7.24708096019602 -1.46113547514751 -0.06187930663066
 6 -8.34310953325333 -2.37649358885889 -0.41721952785279
 6 -7.81986965446545 -3.72112629552955 -0.51467989698970
 6 -6.51836735873587 -3.62661697719772 -0.24523701580158
 6 -6.21895667386739 -2.19490564506451 -0.01927030563056
 6 -8.55772611731173 -4.98183100200020 -0.91496104310431
 6 -5.28204474217422 -4.37050303560356  0.12637113701370
 8 -5.10285164696470 -5.57580023362336  0.07783381818182
 6 -4.21486489648965 -3.20930386448645  0.56698759075908
 6 -3.53890825502550 -3.61487757235724  1.84382556225623
 8 -3.80505416001600 -3.25956918971897  2.95141885718572
 8 -2.62358370627063 -4.61136928942894  1.65505359335934
 6 -2.12997563606361 -5.11292176147615  2.85425676267627
 6  2.74960873747375 -0.62733199089909 -1.15322069696970
 6  4.12649597199720 -0.50177402680268 -0.52542507120712
 6  5.14932854025403  0.26180950545055 -0.99094899509951
 6  5.08672608920892  1.08038257455746 -2.23482057315732
 6  6.36176263386339  0.29238804570457 -0.11349803600360
 6  7.61840957985799 -0.12021390329033 -0.97137680638064
 6  8.87831691409141 -0.07709744324432 -0.11208380258026
 6  10.16995788878888 -0.47628472677268 -0.95768216261626
 6  10.15576276247625 -1.96684601950195 -1.45394705620562
 6  11.37502861996200 -0.14008489908991 -0.11602140344034
 6  12.80016718571857 -0.50881739763976 -0.70804134393439
 6  13.97242293009301 -0.08542530573057  0.27197441044104
 6  15.35321066506651 -0.23767637933793 -0.42157520782078
 6  15.65140924312431 -1.61398418421842 -0.74457173697370
 6  16.42121537553755  0.43743812991299  0.47962714741474
 6  17.77387309160916  0.54657278307831 -0.14189246914691
 6  18.86623202270227  1.20168201500150  0.76214857655766
 6  20.33398107790779  1.38291403600360  0.22021162476248
 6  20.42538276717672  2.03034868286829 -1.21927774917492
 6  21.08187606170617  2.04578894829483  1.33328002960296
 1 -4.15231549004900  3.60722910461046  1.37850237123712
 1 -10.28385213691369  3.81868945284528 -0.52417672027203
 1 -10.37895715751575 -2.43354340904090 -1.27762130963096
 1 -2.58433712441244 -1.02093175687569  2.06279351795179
 1 -2.38101773977398  1.70891938053805  1.15605997249725
 1 -1.88445216851685  0.84501999099910  3.50988120152015
 1 -2.89571435763576  2.31909136573657  3.28998356585659
 1 -3.67465844704470  0.85750011771177  3.56364024852485
 1 -2.16069859675968 -1.65335125552555 -0.18866385238524
 1 -1.96998120032003  0.20852294359436 -0.85909101070107
 1 -0.24381147514752  0.54982290579058  1.12709496139614
 1 -0.16919287298730 -1.21175415081508  1.16259913581358
 1 -4.93731589928993  6.21898707380738  0.61685346754675
 1 -6.08890356065606  6.75602540134013  1.59482417161716
 1 -4.98467169596960  5.52739791119112  2.10140381908191
 1 -9.59289678857886  5.69484242034203  0.17791563606361
 1 -9.00922156255625  8.12085067456746  0.33318391169117
 1 -7.09160419701970  7.82327289648965  0.00286581598160
 1 -12.03701911471147  3.36032333763376 -1.95983228162816
 1 -12.99542475597560  1.87936357445745 -1.77329085278528
 1 -12.84883184458446  2.97696078147815 -0.37554905290529
 1 -12.21374390249025 -1.63136553475348 -1.34415462336234
 1 -13.41221722532253 -0.36155996899690 -1.53468082508251
 1 -13.08078854505450 -1.55145638483848 -3.52520551825182
 1 -12.48881905590559  0.18060933503350 -3.81683925892589
 1 -11.34251759935994 -1.21987493149315 -3.32607172267227
 1 -9.07435833173317 -4.70020286858686 -1.98754633603360
 1 -7.91515521652165 -5.88490859905991 -1.13280750885089
 1 -9.44662682848285 -5.45985277227723 -0.34812306850685
 1 -3.58274840684068 -3.60655223972397 -0.17535418841884
 1 -1.22250334033403 -4.32454083138314  3.25558224522452
 1 -2.90651583898390 -5.45476611901190  3.48872609470947
 1 -1.56944837133713 -5.97219139623962  2.61594829772977
 1  2.67466213731373 -1.57305699559956 -1.59608368466847
 1  2.45795749594960  0.12751566996700 -1.99951197099710
 1  4.16343556785679 -1.11506951315131  0.38258063426343
 1  4.22082301860186  1.25556665296530 -2.67231057335734
 1  5.52610590899090  2.06968135833583 -1.80834518911891
 1  5.70233555635564  0.64927525772577 -2.90607190649065
 1  6.48467149044904  1.43579980768077  0.12074957265727
 1  6.43923727172717 -0.24810805970597  0.78566957405741
 1  7.40730447254726 -1.16769784148415 -1.33912804150415
 1  7.60941247224723  0.34856173267327 -1.82938308520852
 1  8.79254535173517  0.87025964246425  0.36324028652865
 1  8.89856767956796 -0.87194554995500  0.79298391699170
 1  10.42958466996700  0.16843160946095 -1.85772960356036
 1  9.15947244364436 -2.20778782308231 -1.81846680788079
 1  11.06193927862786 -2.10929744234423 -1.93566975297530
 1  10.00540801440144 -2.59722134473447 -0.60785287598760
 1  11.45532029422942  0.90991539903990  0.05118708210821
 1  11.32336274597460 -0.67558989708971  0.83948142114211
 1  12.79247498319832 -1.57778463986399 -0.71602993789379
 1  12.90220912691269 -0.06556707770777 -1.57367573137314
 1  13.79746124932493  1.04678793429343  0.55861252175218
 1  13.96643273357336 -0.77945038233823  1.08895406510651
 1  15.38010040214022  0.29532939333933 -1.29634929442944
 1  15.50590259125913 -2.29299602550255 -0.00010760836084
 1  14.72385991779178 -1.97467566116612 -1.30613833423342
 1  16.75930398899890 -1.78799272787279 -1.24792690149015
 1  16.15430063976397  1.42373144584458  0.69670309130913
 1  16.65747744974497 -0.13333972967297  1.48187111881188
 1  18.35040423232323 -0.40038700250025 -0.39455546314631
 1  17.90376045724572  1.05691695019502 -1.02544602850285
 1  18.49200788358836  2.33282518211821  0.86646174707471
 1  18.90083636103610  0.71330494179418  1.84181053265327
 1  20.69554962166216  0.46071250705071  0.10451820222022
 1  20.28319515281528  3.20791977687769 -1.03590385988599
 1  21.37370348424843  1.96279215711571 -1.78666992099210
 1  20.03619445264526  1.36834823712371 -1.93407383068307
 1  20.95065508080808  1.57419672347235  2.21513095469547
 1  22.08052269276928  2.31630016121612  0.88072233843384
 1  20.70406293889389  3.04666834303430  1.37309324052405

