%nproc=4
%Mem=2GB
# td=(NStates=1) CAM-B3LYP/6-31G(d,p) 

TD

0 1
12 -7.15210687998800  0.50567880858086  0.13990203880388
 6 -4.85096397749775 -1.95784789608961  0.56573220812081
 6 -4.80608991529153  2.84516884418442  1.22993645084508
 6 -9.29909449824982  3.12791519091909 -0.45506683968397
 6 -9.53228425602560 -1.82446262126213 -0.87641575657566
 7 -5.04711749334933  0.46040730123012  0.65510303070307
 6 -4.37897550285028 -0.71091171157116  0.79538144094409
 6 -2.95544650585059 -0.39858513061306  1.34163960516052
 6 -3.04669495869587  1.12143327582758  1.76099890629063
 6 -4.40146823352335  1.53640402080208  1.19805606680668
 6 -3.06589438043804  1.23161964926493  3.31427495359536
 6 -2.01638591949195 -0.50858486858686  0.08121744754475
 6 -0.48596685068507 -0.44297252865287  0.48256683958396
 6  0.48731811021102 -0.53140657275728 -0.65134678647865
 8  0.24687523722372 -0.97902930673067 -1.70768004830483
 8  1.75946297129713 -0.39616452325233 -0.14618883898390
 7 -7.12364997349735  2.52461386868687  0.30548570537054
 6 -6.13145027602760  3.29908086198620  0.88649663366337
 6 -6.51856984668467  4.76423705410541  0.95994375887589
 6 -7.76527712311231  4.84469435613561  0.38801570857086
 6 -8.08143869706971  3.52452274357436 -0.00161982278228
 6 -5.62096787798780  5.86057714901490  1.31570809600960
 6 -8.67046625902590  6.04220928892889  0.26781680358036
 6 -8.18782798059806  7.25557164146415  0.07851358905891
 7 -9.13188822452245  0.59254573287329 -0.53703540884088
 6 -9.77483914291429  1.74497518011801 -0.70413553775378
 6 -11.20223496639664  1.39327031743174 -1.05354010361036
 6 -11.17629615031503  0.02349622692269 -1.16260552675268
 6 -9.98467835153515 -0.45451393949395 -0.83616291919192
 6 -12.28537677977798  2.46958923982398 -1.44386491739174
 6 -12.40183022872287 -0.81639270147015 -1.69077425462546
 6 -12.43665999799980 -1.10289417461746 -3.18573667906791
 7 -7.22262851495150 -1.42705206680668 -0.08325144384438
 6 -8.24404962726273 -2.24766070557056 -0.48516632253225
 6 -7.85770343784378 -3.64059824272427 -0.53013144214421
 6 -6.47631315331533 -3.52914723022302 -0.14685717781778
 6 -6.13113789198920 -2.18696485098510  0.09885150655065
 6 -8.80075041974197 -4.82080489938994 -0.88111765876588
 6 -5.34267080478048 -4.37102308760876  0.11213971387139
 8 -5.10654201600160 -5.62078473207321  0.15634166896690
 6 -4.23234664466447 -3.31508444254425  0.52901379337934
 6 -3.66460082428243 -3.68739482408241  1.93083426312631
 8 -3.78801245584558 -3.00358359115912  2.84212792809281
 8 -2.77593894179418 -4.69817797029703  1.69229731773177
 6 -2.22693533203320 -5.27331780108011  2.98227956495650
 6  2.79947372397240 -0.62861211891189 -1.13961933683368
 6  4.14670799319932 -0.37636148554855 -0.53019554825483
 6  5.13298690609061  0.44251757625763 -0.88175807600760
 6  5.17017443404340  1.38721325762576 -2.06369346044604
 6  6.45924238183818  0.42007081398140 -0.17716440264026
 6  7.64044178307831 -0.14783666556656 -0.99342901160116
 6  8.88861794419442 -0.12731246474647 -0.22815540974097
 6  10.24266515951595 -0.53917101540154 -0.86083247764776
 6  10.24437162336234 -2.00122945784578 -1.37877953945395
 6  11.53002411951195 -0.29844073467347 -0.09465926722672
 6  12.82589975897590 -0.40158667456746 -0.84372491229123
 6  13.98506419421942  0.01147438423842 -0.04284707170717
 6  15.35029037303730 -0.15266787848785 -0.62034508480848
 6  15.66035013721372 -1.69884267006701 -0.92594987478748
 6  16.43977723172317  0.35864025012501  0.33828301300130
 6  17.86263196749675  0.52664078987899 -0.17350563046305
 6  18.86436183568357  1.17204905170517  0.80757311901190
 6  20.41424910471047  1.23151889648965  0.33218282188219
 6  20.38376860576058  1.97280292829283 -0.92989881128113
 6  21.11012888698870  1.97277164656466  1.36410311191119
 1 -4.23900415891589  3.47234561626163  1.80922544354435
 1 -10.02432618431843  3.84917250115011 -0.72579688228823
 1 -10.39988925072507 -2.49192924762476 -0.98816236373637
 1 -2.61042973367337 -0.99255891959196  2.07086432503250
 1 -2.13639327732773  1.64235272387239  1.35488985548555
 1 -1.99358308160816  1.32631812081208  3.81602181558156
 1 -3.43446823302330  2.36448590519052  3.46663123062306
 1 -3.62090307150715  0.39417378507851  3.71596548104810
 1 -1.97285981288129 -1.41627754815482 -0.27978296429643
 1 -2.32602680488049  0.38528061936194 -0.46418151975198
 1 -0.30776787078708  0.50663858735874  0.80926317821782
 1 -0.34820077377738 -1.20155313071307  1.31998487438744
 1 -4.93442561026103  5.87807298239824  0.50815259745975
 1 -6.07164183448345  6.89364916371637  1.67494218341834
 1 -5.05971920072007  5.50795596699670  2.19293297199720
 1 -9.59711721062106  5.82844578067807  0.33277112161216
 1 -8.82394303470347  8.01313990349035  0.06000659395940
 1 -7.15673070967097  7.41653222242224  0.02745827522752
 1 -11.95744115691569  2.96567387268727 -2.35424172257226
 1 -13.29226443994399  1.88574421252125 -1.41385490919092
 1 -12.28524548594860  3.30161324672467 -0.66119761776178
 1 -12.27453998209821 -1.72874527272727 -1.09623983188319
 1 -13.21540754435444 -0.48540235323532 -1.40008736573657
 1 -13.24461492769277 -1.80376161536154 -3.45639863756376
 1 -12.32174234823482 -0.33812253815382 -3.79032660766077
 1 -11.47014036163616 -1.54177712171217 -3.35565468096810
 1 -9.21471236713671 -4.58630147844784 -1.79845742714271
 1 -8.10042374337434 -5.82034214241424 -0.64566879497950
 1 -9.59599176497650 -4.82542932993299 -0.19788804500450
 1 -3.47041717371737 -3.41927351185118 -0.18205485848585
 1 -1.55949703970397 -4.44748312561256  3.35140182718272
 1 -3.15997118451845 -5.40481112351235  3.46040326242624
 1 -1.68667009350935 -6.07380155725573  2.54898160106011
 1  2.82916758785879 -1.72155184508451 -1.47859193549355
 1  2.77847954815482  0.06340925932593 -1.98295031483148
 1  4.39121834613461 -1.21055906210621  0.24971734793479
 1  4.30381131743174  1.36165726202620 -2.63272661496150
 1  5.32647594599460  2.44481887208721 -1.53121747634763
 1  5.87306262906291  1.38779911011101 -2.83229452875288
 1  6.64306733003300  1.56116234393439  0.14209170687069
 1  6.36407975597560 -0.00563381228123  0.72910391749175
 1  7.42765650775078 -1.22764383608361 -1.22255638433843
 1  8.06080761176118  0.24684156065607 -1.94259440634063
 1  8.97652374957496  0.91838445494549  0.34710867336734
 1  8.82057988078808 -0.62707106250625  0.68430304890489
 1  10.37835954745475  0.14410917721772 -1.64291812241224
 1  9.25780227662766 -2.16013305760576 -1.85204016521652
 1  11.16882996769677 -2.15209172177218 -1.90764695069507
 1  9.96276374997500 -2.65553717631763 -0.53970606130613
 1  11.52778754095410  0.69227363486349  0.27659962336234
 1  11.51164157385739 -0.92316465456546  0.77579505250525
 1  13.00876661236124 -1.46228308970897 -1.11978031293129
 1  12.85559446544655  0.33257273627363 -1.79381774557456
 1  13.79819132233223  1.18957221272127  0.15880254075408
 1  13.91114720502050 -0.52141457875788  0.87555272497250
 1  15.50312270437044  0.39400926132613 -1.61756141564156
 1  15.52481448244825 -2.06742346824682  0.09155155755576
 1  14.93458098989899 -2.20350854445445 -1.50479820022002
 1  16.67530558915892 -1.91278520712071 -1.25505761456146
 1  16.09081429112911  1.34666373907391  0.56959038003800
 1  16.61663336533653 -0.27127352305231  1.24711764346435
 1  18.32027121902190 -0.34558152195220 -0.43157916551655
 1  17.78559864106411  1.16699795829583 -1.08372185608561
 1  18.47084576737674  2.25433733333333  0.97217231813181
 1  18.81809808720872  0.56778038933893  1.78863521512151
 1  20.80603066976698  0.24419085488549  0.03795154555456
 1  19.81394822812281  3.03346233113311 -1.06464673417342
 1  21.39490560446045  2.21318719661966 -1.19775102910291
 1  19.92804363756375  1.61424282658266 -1.92594301760176
 1  21.03453346864686  1.51267057085709  2.36232567416742
 1  22.09644428492849  2.16572510371037  1.14664893109311
 1  20.57039957255726  3.05273895009501  1.36680261146115

