%nproc=4
%Mem=2GB
# td=(NStates=1) CAM-B3LYP/6-31G(d,p) 

TD

0 1
12 -7.16464813411341  0.63166140684068 -0.01767371877188
 6 -4.78267714881488 -1.98345045634563  0.35972160706071
 6 -4.78962826912691  2.78958328562856  1.17021047824782
 6 -9.32627721652165  3.09807220662066 -0.40544187718772
 6 -9.47953898149815 -1.74294446944694 -0.88281639663966
 7 -5.08648142974297  0.38282954345435  0.69585710611061
 6 -4.36566417171717 -0.73791441184118  0.82044394719472
 6 -2.91549251045104 -0.38670394249425  1.14672011321132
 6 -2.97274756395640  1.06285741824182  1.62855566196620
 6 -4.37594568126813  1.41989236963696  1.13431969316932
 6 -3.03456124712471  1.15356184348435  3.17571109720972
 6 -1.86290057095710 -0.58173218331833  0.01823114891489
 6 -0.47962621662166 -0.24505273667367  0.46584516741674
 6  0.51930130853085 -0.58432186428643 -0.57900955275528
 8  0.21168171787179 -1.02793419721972 -1.76358563886389
 8  1.80653767876788 -0.47011191799180 -0.25792001210121
 7 -7.06149375787579  2.56664807210721  0.40126528332833
 6 -6.08742587358736  3.30072102600260  0.86730471447145
 6 -6.53856184588459  4.72733336373637  0.95331309580958
 6 -7.68130872627263  4.84901478817882  0.53749065606561
 6 -8.16790734393439  3.39104939623962  0.11732207140714
 6 -5.54905068626863  5.80846193749375  1.38182470767077
 6 -8.58003721612161  6.02813788178818  0.32665268716872
 6 -8.07626682448245  7.28753483778378  0.02047778547855
 7 -9.14276931263126  0.69410588888889 -0.69550125542554
 6 -9.90556221522152  1.80464114671467 -0.74009913411341
 6 -11.18468321122112  1.53041403180318 -1.10116486608661
 6 -11.25067358805881  0.03629750705071 -1.11435070127013
 6 -9.97993787748775 -0.39799828792879 -0.93330263316332
 6 -12.30645888798880  2.41193347424742 -1.49133966486649
 6 -12.37614766046605 -0.83623468566857 -1.66343152035204
 6 -12.36642297429743 -0.96817070227023 -3.19361746714671
 7 -7.21406765886589 -1.39253861546155 -0.18109122782278
 6 -8.31441666396640 -2.21858779827983 -0.47922572847285
 6 -7.80606827432743 -3.58356253915392 -0.37765619461946
 6 -6.54707022902290 -3.55918023352335 -0.02795528762876
 6 -6.20895567376738 -2.19978613311331  0.04122574397440
 6 -8.61700204490449 -4.82462528142814 -0.64267381438144
 6 -5.31777831553155 -4.40113609890989  0.21339983988399
 8 -5.20710207200720 -5.62291494509451  0.26898293309331
 6 -4.13240665066507 -3.40357329142914  0.45676656865687
 6 -3.48029239343934 -3.70329641424142  1.78864004370437
 8 -3.71620527512751 -3.00425365816582  2.75646936223622
 8 -2.65375672357236 -4.82417056955696  1.73540162816282
 6 -2.10767340584058 -5.31160162946295  3.00894223122312
 6  2.81114489108911 -0.67211646934693 -1.25600097499750
 6  4.07545086748675 -0.38857270667067 -0.47442997169717
 6  5.07897150455045  0.44493781828183 -0.75107500770077
 6  5.02158957555756  1.30020455675568 -2.01369846094609
 6  6.41741819941994  0.51580038693869 -0.04927161336134
 6  7.59382712161216 -0.02477435933593 -0.85937560626063
 6  8.84240332273227 -0.07749748324832 -0.03766636083608
 6  10.14378527152715 -0.55143224152415 -0.84768116251625
 6  10.10772795899590 -1.98246758165817 -1.35469713121312
 6  11.47561867896790 -0.32391328192819  0.10660085878588
 6  12.82501967096710 -0.49271578747875 -0.69476001580158
 6  13.91646733453345 -0.05917268046805  0.25238245124512
 6  15.35989133313331 -0.06510912261226 -0.51294434473447
 6  15.51560566276628 -1.61704449024902 -0.98703598339834
 6  16.53460671467147  0.34397878397840  0.46892607730773
 6  17.81803750805081  0.47111523732373 -0.20962924282428
 6  18.79698509800980  1.17298914571457  0.79534189588959
 6  20.19041672147215  1.32172791739174  0.13253285688569
 6  20.24737496639664  2.10636628462846 -1.16791261266127
 6  21.15904377847785  1.89653402280228  1.16006270787079
 1 -4.00001025952595  3.61987036873687  1.38734325532553
 1 -10.14837858955896  3.91163874777478 -0.29405370797080
 1 -10.23188245004500 -2.53558361306131 -0.88554210171017
 1 -2.73470216091609 -1.18374803850385  1.88774601320132
 1 -2.17597723572357  1.53331181978198  1.13254762126213
 1 -2.08658238153815  0.90336582558256  3.69645985938594
 1 -3.44141892809281  2.18551800840084  3.55876044354435
 1 -3.86207718891889  0.41008537623762  3.46172005650565
 1 -2.05596812371237 -1.56154207460746 -0.54858984498450
 1 -2.25790999319932  0.02806489778978 -0.79710481208121
 1 -0.04991208520852  0.69938786228623  0.87438969086909
 1 -0.02391834553455 -0.95969894529453  1.34240711661166
 1 -4.66546871457146  5.95477065216522  0.46375815801580
 1 -6.10462513281328  6.85564536333633  1.47863255245525
 1 -4.99170239903990  5.47734290569057  2.32209588828883
 1 -9.70477797669767  5.82140507660766  0.08748659315932
 1 -8.69985062546255  8.18035662516252  0.03263385668567
 1 -7.01582661926193  7.25413598279828  0.07319284868487
 1 -11.89926533933393  3.15475278057806 -2.18640493889389
 1 -13.24130934443444  1.88071370947095 -1.80740426412641
 1 -12.44442140354036  2.75810889628963 -0.45779727772777
 1 -12.59530205830583 -1.76937933613361 -1.19180938883888
 1 -13.30260626422642 -0.18399221222122 -1.37120447744774
 1 -13.30569103530353 -1.49403064226423 -3.55215821352135
 1 -12.60669084308431  0.01716299039904 -3.52298987398740
 1 -11.38604195179518 -1.47786073007301 -3.62342145764576
 1 -8.98148904480448 -4.79089193749375 -1.72129971137114
 1 -8.04154785578558 -5.89180928912891 -0.58411263936394
 1 -9.58398056385639 -5.05282206920692 -0.27811606780678
 1 -3.65413554555456 -3.56972855735574 -0.57107376037604
 1 -1.68716980698070 -4.40918929622962  3.51712839983998
 1 -2.82949813721372 -5.91047168956896  3.44006122822282
 1 -1.12135356185619 -6.09021319841984  2.93583028592859
 1  2.78973364446445 -1.68601829172917 -1.62811688798880
 1  2.59220092029203  0.11951486988699 -1.96168818861886
 1  4.16728595289529 -0.84791279747975  0.43303567976798
 1  4.05336627292729  1.64161525782578 -2.28173151545155
 1  5.78810210861086  2.01745613581358 -2.11956631123112
 1  5.38927425022502  0.69804013421342 -2.98515981528153
 1  6.72153517681768  1.50982721042104 -0.03517601990199
 1  6.30647399539954 -0.02654590349035  0.92275328242824
 1  7.35102884498450 -1.11584265596560 -1.26884101280128
 1  7.95691722272227  0.71819869636964 -1.68169831673167
 1  9.01035713291329  0.87817043354335  0.39930389288929
 1  8.72165998879888 -1.04164251965197  0.80797541614161
 1  10.14958667016702  0.15871063736374 -1.78474230483048
 1  9.16070256665667 -2.19580662496250 -1.98231319251925
 1  11.06011909660966 -1.94003051565157 -2.00486667266727
 1  10.25428290189019 -2.96655827842784 -0.59579166986699
 1  11.55800056225623  0.64525893339334  0.52943490689069
 1  11.18325873557356 -0.99762210031003  1.00944841784178
 1  12.80012574827483 -1.56769363076308 -1.13038137303730
 1  12.78016692269227  0.23332281128113 -1.54366273007301
 1  13.80400190339034  0.90523377887789  0.72252891339134
 1  13.88283437373737 -0.76536897419742  1.07891306100610
 1  15.41932432453245  0.65879573997400 -1.38602826232623
 1  15.42336433743374 -2.39476620252025 -0.00597819541954
 1  14.69010654245425 -1.88924711831183 -1.74820254065407
 1  16.65749380798080 -1.67560148874887 -1.19807191599160
 1  16.18736394609461  1.29332840554055  0.65807922892289
 1  16.43295499749975 -0.08994539023902  1.31258419011901
 1  18.10800999289929 -0.51274823862386 -0.41118712631263
 1  17.89535961716172  1.02562382088209 -1.05276876077608
 1  18.53859254205420  2.24567646724672  1.12402750365037
 1  18.76186246364636  0.59846345764576  1.79084543614361
 1  20.59839990669067  0.35322175797580 -0.04588683828383
 1  19.85797263056306  3.19659864476448 -1.02967323682368
 1  21.31799791369137  2.21588746664666 -1.49801105510551
 1  19.67753858705871  1.76012741504150 -1.94868529182918
 1  21.14273428872887  1.32189149294929  2.12833227482748
 1  22.19225386588659  1.84551308250825  0.75896016221622
 1  20.94665719831983  2.77953162936294  1.36358228942894

