%nproc=4
%Mem=2GB
# td=(NStates=1) CAM-B3LYP/6-31G(d,p) 

TD

0 1
12 -7.19807147644764  0.61079932063206  0.29422747134713
 6 -4.93032191329133 -1.94159627092709  0.55476111101110
 6 -4.82134144044404  2.87117144444444  1.35430888808881
 6 -9.46362095089509  3.13631603100310 -0.35096642964296
 6 -9.55297632523252 -1.78514868986899 -0.80581869686969
 7 -5.16075885748575  0.42254351485148  0.86024354475448
 6 -4.38932653795380 -0.72197281768177  0.81459336213621
 6 -2.96189715091509 -0.31460673277328  1.29595503670367
 6 -3.07086737593759  1.12673380588059  1.78779158555856
 6 -4.45271335803580  1.47403778417842  1.26174243544354
 6 -2.92086987798780  1.26709319661966  3.38509203530353
 6 -1.87622190309031 -0.43210722082208  0.12116144194419
 6 -0.49723797779778 -0.48054628602860  0.48704728762876
 6  0.50579995839584 -0.61222465456546 -0.61156280808081
 8  0.19326987668767 -0.99580098389839 -1.65691497179718
 8  1.80428745374537 -0.35870077687769 -0.25798001810181
 7 -7.08973658215822  2.62825423272327  0.31844700150015
 6 -6.12401953295330  3.39687064096410  0.87824580858086
 6 -6.47157514721472  4.73235386578658  0.89879764426443
 6 -7.68766936233623  4.83427331403140  0.39943685068507
 6 -8.18512906610661  3.55702599389939  0.08977931713171
 6 -5.67288306950695  5.85524661596160  1.34441096629663
 6 -8.71784099649965  6.01352642064206  0.17768779067907
 6 -8.23230242804280  7.25897198149815 -0.02057631993199
 7 -9.12430746644664  0.62589906820682 -0.40613231853185
 6 -9.90160181918192  1.73859454205421 -0.70057518171817
 6 -11.21344608750875  1.44249523992399 -1.24368911851185
 6 -11.18706722742274  0.04828870617062 -1.29437870407041
 6 -9.87724760846085 -0.34613310141014 -0.78174747764776
 6 -12.30529877197720  2.35201748264826 -1.34281481238124
 6 -12.29896994269427 -0.82442350455046 -1.75294047124712
 6 -12.16920325232523 -1.14848873407341 -3.24633273867387
 7 -7.24440069216922 -1.42732209380938 -0.05281840054005
 6 -8.23206842914291 -2.31817775727573 -0.61803960986099
 6 -7.79296696419642 -3.64433861676168 -0.51266969596960
 6 -6.53657917991799 -3.58937325282528 -0.11240373247325
 6 -6.23723850205020 -2.22878903340334  0.18355997739774
 6 -8.37535788048805 -4.93152597149715 -0.79909945694569
 6 -5.27653419111911 -4.37912389768977  0.09407790769077
 8 -5.13283464526453 -5.57283993759376  0.08988502330233
 6 -4.11757516751675 -3.28025095919592  0.57215810781078
 6 -3.49121348554855 -3.62987907250725  1.86629780948095
 8 -3.67511116571657 -3.01726495929593  2.89906362166217
 8 -2.55963731163116 -4.62184033653365  1.66965505350535
 6 -2.03297593609361 -5.15454592389239  2.89305064206421
 6  2.78401217781778 -0.62186144384438 -1.21293666856686
 6  4.13335665806581 -0.36274012341234 -0.61433396209621
 6  5.10709431683168  0.44271759625963 -1.03868376857686
 6  4.94742215881588  1.31590612691269 -2.29691678277828
 6  6.46552300990099  0.39106791369137 -0.29892657885789
 6  7.50673841274127 -0.16571845374537 -1.11675134383438
 6  8.93537261966197 -0.06111584508451 -0.32469506370637
 6  10.17255814881488 -0.58130522882288 -1.00837723212321
 6  10.01271845804581 -2.02730206510651 -1.51348300980098
 6  11.39030014711471 -0.29586047664766 -0.22529233053305
 6  12.79391656065606 -0.55639215511551 -0.88007854765477
 6  13.92864855265527 -0.26187295049505  0.07258447144714
 6  15.32780812481248 -0.21580419211921 -0.45380843114311
 6  15.73852795499550 -1.58449123492349 -0.93747102690269
 6  16.28996225022502  0.25149953605361  0.57985717041704
 6  17.76967267156716  0.64060218601860 -0.01580986088609
 6  18.82699809930993  1.11256310311031  0.88593095479548
 6  20.24248192799280  1.28540428502850  0.37006661026103
 6  20.46740696959696  2.03329897789779 -0.98596441784178
 6  21.10489836393640  1.99147351675168  1.46319302090209
 1 -4.25094535303530  3.52602098379838  1.56257077807781
 1 -10.19066281798180  3.87494507840784 -0.32844714731473
 1 -10.30940020182018 -2.38780883558356 -1.29283283078308
 1 -2.77252594329433 -1.08715837953795  2.13016025462546
 1 -2.26641627962796  1.71394988358836  1.35228959545955
 1 -2.02590631393139  0.77385287428743  3.88586880028003
 1 -3.11521630783078  2.41183063966397  3.89106367386739
 1 -3.68510949214921  0.64224859255926  3.85157904240424
 1 -2.20374290119012 -1.33825974637464 -0.26743172917292
 1 -1.94800900310031  0.25023711501150 -0.67641274287429
 1 -0.17357445144514  0.38763668716872  1.06972922482248
 1 -0.13147910161016 -1.41872484788479  1.07315019091909
 1 -4.75044721242124  6.09969514461446  0.59694147634764
 1 -6.17130180048005  6.75433523232323  1.68794348354835
 1 -4.89982321112111  5.56623179457946  2.10277395609561
 1 -9.79568706760676  5.81002393849385  0.15132297679768
 1 -8.75427606800680  8.11230982048205 -0.16082548924893
 1 -7.16701173777378  7.44081465066507 -0.35187965856586
 1 -12.20281569436944  3.05149245454545 -2.34606090449045
 1 -13.27849306280628  1.58569420752075 -1.53290681438144
 1 -12.52981994339434  3.18676176157616 -0.63247474547455
 1 -12.33999652775277 -1.80577297549755 -1.20563077097710
 1 -13.18856486008601 -0.09713352635264 -1.69876723372337
 1 -13.03549401560156 -1.80671191039104 -3.47867086478648
 1 -12.00743091709171 -0.14303302920292 -3.97846542154216
 1 -11.36236958455846 -1.77341028502850 -3.36390550605060
 1 -9.04781567746775 -5.00713356165616 -1.69667724912491
 1 -7.75513921492149 -5.89507961616162 -0.64430865896590
 1 -9.25571773757376 -5.06887367436744  0.05562730653065
 1 -3.32546267826783 -3.35605719021902 -0.25701235423542
 1 -1.69314040404040 -4.32977135443544  3.30370705770577
 1 -2.77889307670767 -5.67908855125513  3.49394661676168
 1 -1.32693411991199 -5.96692086918692  2.86540324322432
 1  2.92719739083908 -1.69618930883088 -1.56774085038504
 1  2.84923662386239 -0.04484156575658 -2.19526154595460
 1  4.26837606190619 -0.83055106130613  0.39009138533853
 1  3.81385232153215  1.58515961226123 -2.51834517681768
 1  5.56998029642964  2.23211760196020 -1.98250260486049
 1  5.44560988378838  0.84777510771077 -3.13390468976898
 1  6.35962898619862  1.58431465916592  0.02820031773177
 1  6.54913826182618 -0.15497874677468  0.75210621772177
 1  7.35387913001300 -1.15469654135413 -1.56389051775178
 1  7.75269680068007  0.42948982548255 -2.01948209510951
 1  8.94465056225622  0.96586920342034  0.13660762326233
 1  8.94207203000300 -0.57367572297230  0.63548816741674
 1  10.25392710421042 -0.10984621832183 -2.05091892249225
 1  9.15524202060206 -1.95087213151315 -2.31423638483848
 1  11.07716080078008 -2.39199571217122 -2.08375456145615
 1  9.74769224282428 -2.80041166376638 -0.67905999669967
 1  11.37061182338234  0.87725213271327 -0.15228326492649
 1  11.35533594329433 -0.81464380248025  0.72976044904490
 1  12.67862359805981 -1.72352921432143 -1.22968130303030
 1  12.72382128812881  0.14444392339234 -1.75956432023202
 1  13.76797830103010  0.61268452395239  0.68763542404240
 1  13.84463055335534 -0.80120255755576  0.88176334603460
 1  15.44510690279028  0.40557041744174 -1.27911757125713
 1  15.49263126412641 -2.51775850175017 -0.20311790939094
 1  15.41109864166417 -1.83705189878988 -2.08896661706171
 1  17.02333039163917 -1.81707563616362 -1.15768787758776
 1  15.89902511221122  1.14415348804880  1.24319774077408
 1  16.51747344934494 -0.34317071277128  1.52067499919992
 1  18.20166935883589 -0.41051801560156 -0.47979398699870
 1  17.63895397659766  1.24377563606361 -0.98492197609761
 1  18.50168885168517  2.21875377497750  1.26454155505551
 1  18.86090236763676  0.50459407070707  1.79693604520452
 1  20.36475654235423  0.19238567436744  0.16841459185919
 1  20.09216604990499  3.10308929382938 -0.87019728922892
 1  21.56535264916491  1.90802668056806 -1.37674892889289
 1  19.82375320852085  1.53613501580158 -1.81855227852785
 1  21.11392140744075  1.43992329612961  2.55984542614261
 1  22.28750339083908  1.94948347954795  1.27013127932793
 1  20.75242777537754  3.06256993319332  1.47807373857386

