%nproc=4
%Mem=2GB
# td=(NStates=1) CAM-B3LYP/6-31G(d,p) 

TD

0 1
12 -7.18777044634463  0.67172541324132  0.08092614121412
 6 -4.79815869696970 -1.88931104240424  0.43487912281228
 6 -4.83095240154015  2.79722404970497  1.13148660586059
 6 -9.42363695249525  3.02624502390239 -0.29389072207221
 6 -9.57302833043304 -1.74254442944294 -0.73503161816182
 7 -5.10446322792279  0.41364262476248  0.72261978237824
 6 -4.34731233653365 -0.69224984538454  0.81871377417742
 6 -2.96321728292829 -0.30813608570857  1.19491493269327
 6 -3.05564585378538  1.08350948344834  1.61328413481348
 6 -4.39435752245225  1.44119449984998  1.18691495269527
 6 -2.87363515451545  1.27067355465547  3.17744127022702
 6 -1.95559984088409 -0.56242025212521  0.07637696349635
 6 -0.52269052305231 -0.49001723312331  0.58515709860986
 6  0.47348672707271 -0.58239167126713 -0.56991864366437
 8  0.16033658335834 -0.95921732553255 -1.64928420872087
 8  1.75483250825083 -0.28281318811881 -0.15043926402640
 7 -7.10344795329533  2.58633004030403  0.44830998779878
 6 -6.08983611461146  3.31156211011101  0.89687767176718
 6 -6.38950694039404  4.69869049944994  0.83832159665967
 6 -7.66724732013201  4.84968485518552  0.41826873387339
 6 -8.17092764596459  3.51941223252325  0.08604894409441
 6 -5.46411219241924  5.75743683498350  1.39955648084808
 6 -8.54647385978598  6.02865793379338  0.23142316421642
 6 -8.14688388618862  7.29835591989199 -0.04889915221522
 7 -9.06408144384438  0.62109858815882 -0.49682138743874
 6 -9.86742840184018  1.77167785038504 -0.69484460866087
 6 -11.24081882478248  1.39551054145415 -1.02450720032003
 6 -11.31525004570457  0.03602748004800 -1.17411667786779
 6 -9.92785266896690 -0.43328181628163 -0.77241654455446
 6 -12.33522176427643  2.33789607050705 -1.31223175407541
 6 -12.38946899259926 -0.80433149534953 -1.49524470167017
 6 -12.34054038603860 -1.20184406960696 -3.03605171057106
 7 -7.20442669476948 -1.35815517711771 -0.14575769446945
 6 -8.25735095739574 -2.23869980948095 -0.50247805370537
 6 -7.86932459996000 -3.55846002890289 -0.49366779577958
 6 -6.49956547854786 -3.57752206770677 -0.18652114421442
 6 -6.17911268946895 -2.13754990949095  0.05057667906791
 6 -8.60997134183418 -4.81642446134613 -0.93339288628863
 6 -5.28074461216122 -4.29094507980798  0.11753025292529
 8 -5.07008837063706 -5.54801745534553  0.03065910071007
 6 -4.16808021802180 -3.32215514961496  0.46311720372037
 6 -3.56554091829183 -3.67398348294829  1.88966014571457
 8 -3.76653030763076 -3.06485971877188  2.87067078237824
 8 -2.63854520242024 -4.64245239773977  1.75977406540654
 6 -2.17523016151615 -5.13378384768477  2.88413975097510
 6  2.77973174977498 -0.68378763646365 -1.13184855975598
 6  4.08588191059106 -0.44743859325933 -0.49793232193219
 6  5.11465507290729  0.19199252375238 -1.03574347454745
 6  5.06948436503650  1.00552508880888 -2.30474756585659
 6  6.41434789238924  0.36694550145014 -0.25735242144214
 6  7.61702944184418 -0.30046192809281 -1.00366003470347
 6  8.85873495589559 -0.12877261076108 -0.25994858905891
 6  10.19094998799880 -0.58897599589959 -0.99974636903690
 6  10.20226741294129 -2.02788212311231 -1.56501816331633
 6  11.45325644274427 -0.32165305590559 -0.15707550885089
 6  12.73564073307331 -0.33191970787079 -0.87154769456946
 6  13.88169385718572 -0.03490025322532  0.08792600560056
 6  15.36172151615161 -0.14950756245625 -0.51838488878888
 6  15.69969407160716 -1.56788957475748 -0.96770405020502
 6  16.40701395539554  0.34707909400940  0.47947713241324
 6  17.82697840214021  0.55173329912991 -0.09242752265227
 6  18.72733813331333  1.19660150695070  0.84538690039004
 6  20.25112279207921  1.27722346694669  0.41084068766877
 6  20.42591282018202  2.08949459745975 -0.86378219961996
 6  21.19087696179618  2.02177654705471  1.54357105870587
 1 -4.14289454795480  3.54409279097910  1.28732325332533
 1 -10.05759951165117  4.03351093499350 -0.14832913551355
 1 -10.42676193799380 -2.43318337303730 -1.04194774227423
 1 -2.65078376907691 -0.81289095279528  1.93583082168217
 1 -2.31760139813981  1.83830231883188  1.11740610711071
 1 -1.87743146644664  0.83077856685668  3.49688990239024
 1 -3.09189397559756  2.30525998259826  3.28996356385639
 1 -3.64436541774177  0.67625199289929  3.69850373487349
 1 -2.08481100800080 -1.54932085248525 -0.17081206720672
 1 -2.23974817701770 -0.13675158385839 -1.03953905550555
 1 -0.37693478747875  0.54108203170317  1.01156340824082
 1 -0.33040899459946 -1.19209218461846  1.46790966686669
 1 -4.89801196889689  6.13387856295630  0.60758254045404
 1 -6.06539120942094  6.53810360916092  1.67650233943394
 1 -4.71967519631963  5.60500567196720  2.13153683238324
 1 -9.42449994889489  5.77643057915792  0.08681652615261
 1 -9.01144178457846  7.94352294179418 -0.18157756445645
 1 -7.21000603720372  7.75298586778678 -0.31260573117312
 1 -12.30638605140514  2.89524682998300 -2.29176547494749
 1 -13.32622783628363  2.13962960106011 -1.21632515621562
 1 -12.25200216161616  3.29045213061306 -0.58423992199220
 1 -12.38005053315332 -1.73398579677968 -1.01413162106211
 1 -13.29904590819082 -0.11672548554856 -1.38520587758776
 1 -13.12723318951895 -2.04418565776578 -3.21738473617362
 1 -12.21342151615162 -0.25530425632563 -3.61423899889989
 1 -11.49033238083808 -1.87174011801180 -3.32160127562756
 1 -8.88374927082708 -4.45161801010101 -1.85313289468947
 1 -8.01746544754475 -5.58312842104210 -0.88613284138414
 1 -9.41776394219422 -5.13072985998600 -0.09837809400940
 1 -3.35898603060306 -3.26159774427443 -0.25217187018702
 1 -1.64930602060206 -4.42514089138914  3.51187787478748
 1 -3.14997018441844 -5.16973761616162  3.48752597469747
 1 -1.43816524302430 -6.02412658975898  2.74684138703870
 1  2.65507017811781 -1.65207489738974 -1.23973805010501
 1  2.48167986818682  0.08203112151215 -2.13176519631963
 1  4.16773599789979 -0.95828383458346  0.50610298649865
 1  4.10940187648765  1.05907700400040 -2.69289263156316
 1  5.49769306770677  1.92940733093309 -2.22005636023602
 1  5.57787311011101  0.57776810701070 -3.15032633193319
 1  6.65627865116512  1.46758298599860  0.05285278297830
 1  6.32951629962996 -0.05971922082208  0.73099410651065
 1  7.26617035913591 -1.31312238393839 -1.01852598129813
 1  7.58601013201320  0.31807868436844 -1.91189133603360
 1  9.13111920912091  0.77297991449145  0.20279424192419
 1  8.75902372517252 -0.82333068846885  0.75811042964296
 1  9.95248696019602  0.30769553585359 -1.83767759835984
 1  9.40112660906091 -2.13199024332433 -2.32049701090109
 1  10.91594467916792 -2.26226273887389 -2.28340452645265
 1  10.24370184378438 -2.79916153875388 -0.87164925562556
 1  11.33951871407141  0.66056046354635  0.39796175957596
 1  11.70148055775578 -0.96569890799080  0.75832330533053
 1  12.87394313001300 -1.21043790519052 -1.08198653355336
 1  12.78313721972197  0.37955743474347 -1.74874323812381
 1  13.88528003120312  0.87585084058406  0.47541420192019
 1  13.88038412871287 -0.77586002330233  0.95014018371837
 1  15.36036842894289  0.54367422782278 -1.32051171067107
 1  15.64442644364436 -2.16523324922492 -0.22985058265827
 1  14.93045057685769 -1.82409060266027 -1.80803852425243
 1  16.70436849544955 -1.56548047664766 -1.54943705250525
 1  16.01841705140514  1.36685575827583  0.79479290029003
 1  16.53616531853185 -0.23673006870687  1.41103403510351
 1  18.08791798369837 -0.36623358715872 -0.51070707830783
 1  17.80767084828483  0.92028328682868 -0.93057654155416
 1  18.36120480328033  2.36703860346035  1.02275737663766
 1  18.51844812221222  0.68333194449445  1.84225057665767
 1  20.67036710341034  0.37714415021502  0.21981973237324
 1  20.22025885918592  3.09979896479648 -0.73567383688369
 1  21.58607472137214  2.36995287318732 -0.82990424442444
 1  19.98764959815981  1.75185658795880 -1.73954437773777
 1  21.05969598489849  1.42120142394239  2.51545098669867
 1  22.14609925042504  1.92008053925393  1.23031729792979
 1  20.89639217181718  3.04082775897590  1.65672160336034

