%nproc=4
%Mem=2GB
# td=(NStates=1) CAM-B3LYP/6-31G(d,p) 

TD

0 1
12 -7.12607427672767  0.57986622732273  0.11766981558156
 6 -4.76156503760376 -1.91834394569457  0.59856549144914
 6 -4.76923622992299  2.80751507880788  1.26177963516352
 6 -9.36683127192719  3.07701010041004 -0.32919425242524
 6 -9.50684171177118 -1.63151332633263 -0.85274338933893
 7 -5.05784856645665  0.49681094159416  0.75555307570757
 6 -4.25367297259726 -0.68912953335334  0.78917081988199
 6 -2.82629359055906 -0.41082635473547  1.15582102330233
 6 -3.03220350955096  1.07020815331533  1.67877068346835
 6 -4.37392547924792  1.46601698209821  1.18958521972197
 6 -2.87984577557756  1.16769325662566  3.18507203330333
 6 -1.86108038893889 -0.67753176327633  0.01356068186819
 6 -0.40145839983998 -0.49852808420842  0.43344192709271
 6  0.53514289268927 -0.61005443754375 -0.74351600340034
 8  0.16746729642964 -0.86550795459546 -1.85972525282528
 8  1.81090811581158 -0.38326323312331 -0.38053227332733
 7 -7.09846745524552  2.57767917521752  0.36599175597560
 6 -6.11090822182218  3.33068402230223  0.87249523352335
 6 -6.49142713241324  4.72251288168817  0.99470723522352
 6 -7.76040663606361  4.80096998369837  0.40407731473147
 6 -8.11463201640164  3.45491578287829  0.08839917911791
 6 -5.50737651885188  5.83298438973897  1.39995652085209
 6 -8.52683189558956  6.02585765376538  0.29598962086209
 6 -8.18352755055506  7.30754683898390  0.01502724042404
 7 -9.08899393509351  0.77463394169417 -0.64514621992199
 6 -9.85718737773777  1.83550423302330 -0.64729985418542
 6 -11.21910665356536  1.52483347374737 -0.94484923452345
 6 -11.15692421312131  0.20961483878388 -1.20731999819982
 6 -9.88540842454245 -0.33032152025203 -0.92347165006501
 6 -12.45174341644164  2.51143342424242 -1.22405293619362
 6 -12.40162020772077 -0.75777683988399 -1.59075425262526
 6 -12.31524785678568 -1.20551443664366 -3.02464056945695
 7 -7.21316756885689 -1.42707206880688 -0.09415253395340
 6 -8.23296851915192 -2.20615655515552 -0.46633443934393
 6 -7.83717138463846 -3.57711189408941 -0.48940736973697
 6 -6.56070159215922 -3.55025934143414 -0.04726721882188
 6 -6.18669344754475 -2.19158531303130  0.29492111351135
 6 -8.68965931063106 -4.68164098299830 -0.95357490449045
 6 -5.38166470417042 -4.30568655395540  0.17055555545555
 8 -5.30544190599060 -5.49194184778478  0.11060709550955
 6 -4.19411282128213 -3.34429736383638  0.60157104910491
 6 -3.50969533373337 -3.76337242184218  1.95865704540454
 8 -3.79813346794679 -3.21606483928393  3.03683739903990
 8 -2.65612696059606 -4.80762891539154  1.79559764776478
 6 -2.17593023152315 -5.30541101040104  3.00897223422342
 6  2.79687346394639 -0.66655591329133 -1.40025540044004
 6  4.15459878227823 -0.53315716511651 -0.85829835853585
 6  5.17114072147215  0.20109343384338 -1.22503240344034
 6  5.18206562316232  1.02531706800680 -2.55794288538854
 6  6.41604806240624  0.24918372527253 -0.43303999019902
 6  7.65000273917392 -0.11246312821282 -1.11702137083708
 6  8.88345742814282 -0.12325205870587 -0.29988258245825
 6  10.17658855185519 -0.61818891719172 -0.93587998239824
 6  10.09502668886889 -2.12722205710571 -1.15639730123012
 6  11.42862397949795 -0.33436432703270 -0.10189999129913
 6  12.76242341134113 -0.43522003790379 -0.80886142594259
 6  13.90438612641264 -0.22999976317632  0.26374358735874
 6  15.41812715671567 -0.31044365606561 -0.46352940324032
 6  15.66473057525753 -1.64192697849785 -0.84773205300530
 6  16.39616287028703  0.39943432953295  0.51054023872387
 6  17.74876058035804  0.53461158695870 -0.08025630553055
 6  18.66433183268327  1.44559640644064  0.81046340804080
 6  20.19697737753775  1.53529927452745  0.44926453005301
 6  20.36417664656465  2.18389403740374 -0.97042286368637
 6  20.97150502460246  2.23969833923392  1.63311001260126
 1 -4.06931719021902  3.54875325702570  1.68912343334333
 1 -10.16351010271027  3.85373295719572 -0.55116941954195
 1 -10.14042330413041 -2.65658571327133 -1.14158770627063
 1 -2.78338702940294 -1.14435409910991  1.94191142974297
 1 -2.16396603460346  1.79491798039804  1.41414578107811
 1 -1.83096681998200  1.02791828082808  3.53120333373337
 1 -3.24294908110811  2.17172662926293  3.52088665616562
 1 -3.61890287148715  0.31412578027803  3.78632251675168
 1 -2.24260678757876 -1.61059698009801 -0.42034702070207
 1 -2.20849505170517  0.07448954025402 -0.61875697729773
 1 -0.14859195319532  0.32414033753375  1.07318957085709
 1 -0.14573052675267 -1.56132910831083  0.87776065196520
 1 -4.90203237093709  6.20866604170417  0.49891167336734
 1 -5.97972264256426  6.80076987578758  1.80891558075808
 1 -4.74953818261826  5.62672784418442  2.04569824852485
 1 -9.77923542244224  5.92825576167617  0.34940278477848
 1 -8.81071171157116  8.13294188368837 -0.11905131183118
 1 -7.03946898349835  7.54572514171417 -0.29323379397940
 1 -12.11140655345535  2.94158146344634 -2.27281357975798
 1 -13.14415962946295  1.76234187228723 -1.30305382908291
 1 -12.16605356675668  3.27050013541354 -0.32803430143014
 1 -12.40320284838484 -1.69263166136614 -0.96141634953495
 1 -13.32955895949595 -0.11521533453345 -1.44216157315732
 1 -13.28415888208821 -1.63327456665667 -3.44111710941094
 1 -12.02078225222522 -0.26454518041804 -3.55828340334033
 1 -11.50758410601060 -2.00856380038004 -3.12316143164316
 1 -9.22909380528053 -4.29701254955496 -1.91178876027603
 1 -7.80472417341734 -5.48330843904390 -1.23527775587559
 1 -9.40360252605261 -4.97871465846585 -0.19070732693269
 1 -3.42822295429543 -3.59249083358336 -0.26056270927093
 1 -1.75581667166717 -4.43895227252725  3.64103079007901
 1 -3.07918310571057 -5.90276091849185  3.48075529762976
 1 -1.29331075757576 -5.85798997609761  2.84695139803980
 1  2.44637930903090 -1.72825251515152 -1.78356243254325
 1  2.41855355555556 -0.01610869246925 -2.33731575137514
 1  4.36702592689269 -1.05403340954095  0.18631100730073
 1  4.19491042734273  1.23161425772577 -2.86189953225323
 1  5.75796909530953  2.13145753595359 -2.32783713831383
 1  5.55241056385639  0.19376970717072 -3.44130542984299
 1  6.64612763606361  1.28922515021502 -0.06463896619662
 1  6.25446879487949 -0.48736198509851  0.41126213331333
 1  7.43198694079408 -1.11246231793179 -1.56844097279728
 1  7.88525005600560  0.43550042654265 -2.23180332723272
 1  9.01996809400940  0.83608622512251  0.15109907240724
 1  8.55434325712571 -0.89174753015302  0.63409802840284
 1  10.19514122562256 -0.21632686638664 -2.01877570817082
 1  9.48665516191619 -2.24578162246225 -2.17372233343334
 1  11.26518960366037 -2.25707221982198 -1.54378056405641
 1  9.73511098469847 -2.75606722932293 -0.36244833553355
 1  11.44766952915291  0.67098150565056  0.30101206460646
 1  11.46618702840284 -1.13353569166917  0.64786225922592
 1  12.77134286998700 -1.52236909830983 -1.27119545444544
 1  12.93589249524953  0.31987146614661 -1.72425078887889
 1  13.68759026222622  0.71087434293429  0.59223588408841
 1  13.98452454275428 -0.96533897119712  0.97944311401140
 1  15.20668306040604  0.20286014641464 -1.31434109360936
 1  15.96227822882288 -2.38882560846085 -0.13883148074808
 1  14.71970950275028 -2.02556074967497 -1.53017073747375
 1  16.58365642424242 -1.53722765136514 -1.45771788058806
 1  16.01780699039904  1.48410748344834  0.70253367436744
 1  16.34579628162816 -0.08902529822982  1.67381031273127
 1  18.49551874377438 -0.26368333213321 -0.16472247984799
 1  17.56213629482948  0.91077233573357 -1.06418990289029
 1  18.34426310911091  2.52475437503750  0.98081318221822
 1  18.47352362976297  1.02947655895590  1.86327267886789
 1  20.73876394309431  0.60909734553455  0.47142489288929
 1  19.83935076837684  3.25302428732873 -0.78237850735074
 1  21.42367848174818  2.34093997189719 -1.26996825082508
 1  19.76778761196119  1.64110551285129 -1.81300172347235
 1  20.75298531383138  1.80338964276428  2.58784822642264
 1  22.14124876537654  1.99099763096310  1.32955722192219
 1  20.83963649624962  3.51210488668867  1.51514744594459

