%nproc=4
%Mem=2GB
# td=(NStates=1) CAM-B3LYP/6-31G(d,p) 

TD

0 1
12 -7.06093776307631  0.58365660636064  0.03915196379638
 6 -4.89613849494949 -1.99173128442844  0.48288392329233
 6 -4.74821412771277  2.77309163646365  1.19673313051305
 6 -9.36515110391039  3.10988338773877 -0.37983931693169
 6 -9.59040006760676 -1.68627880288029 -0.86184429942994
 7 -5.07832061366137  0.45927718821882  0.59067658805881
 6 -4.38237584288429 -0.72226284668467  0.74537644044404
 6 -2.96828778997900 -0.41099637173717  1.11845728692869
 6 -3.10297058625863  1.03283441594159  1.64086689308931
 6 -4.39880796749675  1.43924430483048  1.25903216441644
 6 -2.94475226622662  1.31164765206521  3.26814034013401
 6 -1.85482976387639 -0.54129813991399  0.04808413421342
 6 -0.45125337933793 -0.40127835923592  0.47990657355736
 6  0.56506588498850 -0.58255168726873 -0.66454810661066
 8  0.32339288898890 -0.93028443224322 -1.78540782108211
 8  1.77996502150215 -0.39591449824982 -0.25165938603860
 7 -7.05453306180618  2.54997640494049  0.38937409420942
 6 -6.02454958595860  3.30830178407841  0.86958494249425
 6 -6.41441943164316  4.69632026242624  0.92051981648165
 6 -7.71856245164516  4.77528741544154  0.47185409240924
 6 -8.09335988918892  3.39218951025103  0.07674801400140
 6 -5.59893567476748  5.80925201650165  1.31144766996700
 6 -8.53241245364537  5.98917398539854  0.29538956085609
 6 -8.06151534933493  7.28290437473747  0.13750948864887
 7 -9.06068110381038  0.69651612991299 -0.48783048834883
 6 -9.78593025202520  1.85726640924092 -0.58377350155016
 6 -11.21702644554455  1.47723871427143 -1.08752350195019
 6 -11.19167768846885  0.08850272757276 -1.16269553575358
 6 -9.92230211391139 -0.37980646874687 -0.82617192009201
 6 -12.29960820292029  2.51919420032003 -1.27537806870687
 6 -12.44534458015802 -0.83789485168517 -1.62677785498550
 6 -12.34913124512451 -1.19630351555156 -3.02719082448245
 7 -7.20482673477348 -1.39282864446445 -0.13981710041004
 6 -8.31223644594460 -2.24251019051905 -0.42992079797980
 6 -7.85991365886589 -3.55863004590459 -0.48523695269527
 6 -6.53385890789079 -3.55666998249825 -0.05304779687969
 6 -6.17877265546555 -2.17991414591459  0.06544816621662
 6 -8.64494483918392 -4.76196901580158 -0.87943749074907
 6 -5.24406094379438 -4.35283126842684  0.16112461236124
 8 -5.13361472327233 -5.52423507710771 -0.04842880808081
 6 -4.20655406540654 -3.30560349444944  0.51418231023102
 6 -3.53978834303430 -3.56128221282128  1.82279345904590
 8 -3.67155080968097 -3.06617985078508  2.86993070837084
 8 -2.68196954485449 -4.67315546804680  1.69865795379538
 6 -2.17360999949995 -5.23204367366737  2.77201853885389
 6  2.84924870147015 -0.72855211291129 -1.12438781368137
 6  4.14661798419842 -0.54353820322032 -0.54103663236324
 6  5.09330293769377  0.30317364186419 -1.00260016021602
 6  4.97751516811681  1.16000053635364 -2.15031212231223
 6  6.40318677627763  0.35896470337034 -0.25039172537254
 6  7.65531327022702 -0.19244112601260 -0.95571524022402
 6  9.02966204860486 -0.07017675117512 -0.17185978017802
 6  10.21701259425943 -0.58993609190919 -0.91175757015702
 6  9.94828201440144 -2.03787312221222 -1.31014267576758
 6  11.42617373447345 -0.28648953955396  0.07166736543654
 6  12.74503167216722 -0.55323183908391 -0.63304384418442
 6  13.94623031083108 -0.12006877007701  0.27637485048505
 6  15.29400474447445 -0.27203981568157 -0.31401445174517
 6  15.70256435863586 -1.73988677447745 -0.74657193699370
 6  16.31774502850285  0.45339972607261  0.55395458015802
 6  17.75952165646565  0.56832495829583 -0.24963324322432
 6  18.67321272077208  1.37657950475048  0.79754211591159
 6  20.12018969876988  1.46569231383138  0.17641724532453
 6  20.27743797269727  2.10835648364837 -1.23374919631963
 6  21.02818069216922  2.04375874527453  1.25130183178318
 1 -4.14678493699370  3.62203058475848  1.38628314931493
 1 -9.97212096379638  4.12452003590359 -0.53580788338834
 1 -10.12828209000900 -2.35624567926793 -1.16878042554255
 1 -2.35781447214721 -1.13329299299930  1.90607784638464
 1 -2.31642128012801  1.64606309490949  1.11555592209221
 1 -2.02959668296830  1.00121561056106  3.80515072847285
 1 -3.27921270747075  2.31646110271027  3.37637220472047
 1 -3.67429841104110  0.64725909360936  3.82298618311831
 1 -1.88663119001900 -1.57659357975798 -0.57050203620362
 1 -2.14373857605761  0.20753284458446 -0.80325542714271
 1 -0.20391748574857  0.49147707120712  0.92376462836284
 1 -0.29707566126613 -1.37949092449245  1.27379025492549
 1 -5.06398856655666  6.16702187728773  0.49457123932393
 1 -6.23454812511251  6.60253005180518  1.57621231043104
 1 -4.72207543634363  5.70382555395540  1.97144082278228
 1 -9.60609810871087  5.77916085218522  0.23296114061406
 1 -8.53432407280728  8.21261985148515 -0.28196760346035
 1 -6.86162119871987  7.33432400160016 -0.14104857545755
 1 -12.12171758455846  3.00869817511751 -2.18663496189619
 1 -13.15768098159816  1.96760239833983 -1.55852937663766
 1 -12.40764772617262  2.91961504690469 -0.22717421542154
 1 -12.23052558065807 -1.71818421662166 -0.90048025592559
 1 -13.36088209180918 -0.37008082108211 -1.53819117611761
 1 -13.17018748494849 -1.73160439963996 -3.19520251795179
 1 -12.67323749774978 -0.27180590649065 -3.67077465246525
 1 -11.43086643424343 -1.72678562256226 -3.36432554805481
 1 -8.94983587948795 -5.03522637093709 -1.82040962236224
 1 -8.15726942794280 -5.92411251945195 -0.79894412251225
 1 -9.71896406220622 -4.65432221922192 -0.31288954515452
 1 -3.20147027902790 -3.59063064756476 -0.13793044604460
 1 -1.68532962296230 -4.41420979827983  3.32924961196120
 1 -3.07112229962996 -5.30965160756076  3.37728495059506
 1 -1.56654808130813 -6.20575475257526  2.54399110201020
 1  2.79012368346835 -1.66635632553255 -1.62067614391439
 1  2.45633733393339  0.03663658205821 -1.80486250605060
 1  4.32207143144314 -1.00663867006701  0.48083045924592
 1  4.09233016931693  1.10518161446145 -2.87520086238624
 1  5.23437673607361  2.05192958315832 -1.97499185378538
 1  5.78354367716772  0.82917324752475 -2.92974427372737
 1  6.59401242454245  1.45082130983098  0.23318081578158
 1  6.22204555255526 -0.31628487738774  0.73083409050905
 1  7.61539528162816 -1.23743481518152 -1.29520364906491
 1  7.91372290329033  0.37266414291429 -1.87498764566457
 1  9.06886298349835  0.80338295479548  0.30588455095510
 1  8.78013583638364 -0.72256061146115  0.79074369296930
 1  10.45664737623762 -0.21152638633863 -1.90464429502950
 1  9.05589208560856 -2.14310135443544 -1.90059502070207
 1  10.75687877257726 -2.26457296989699 -1.75093127912791
 1  9.78284575817582 -2.51686330893089 -0.29079116981698
 1  11.29634439663966  0.75683009050905  0.33040500390039
 1  11.36358676837684 -0.81028336643664  1.08724619761976
 1  12.83004874057406 -1.76884374577458 -0.79877821272127
 1  12.96432533853385  0.00638011701170 -1.61413977777778
 1  13.93430493369337  0.95191844734473  0.71389805030503
 1  14.00772686298630 -0.77394983228323  1.13010818051805
 1  15.33108550065007  0.30795065546555 -1.21752141164116
 1  15.77402940394039 -2.33705043094309  0.27110951335134
 1  14.98527605940594 -2.31843003660366 -1.35771349174917
 1  16.64949300790079 -1.68189211781178 -1.44139624842484
 1  16.08630384008401  1.37329640234023  0.73590701170117
 1  16.40577227922793  0.04403800810081  1.53740667236724
 1  18.07920711261126 -0.49814677847785 -0.32465847344734
 1  17.51917199839984  1.05362662116212 -1.16037952185219
 1  18.12879156195620  2.31283318291829  0.86215131603160
 1  18.54722099949995  0.72184579587959  1.93233958555856
 1  20.46987705440544  0.42486892269227  0.00587833823382
 1  20.00143697699770  3.26949593449345 -1.27887815731573
 1  21.38456457035704  2.25521139903990 -1.40907216121612
 1  19.58632946614661  1.73274467676768 -2.14214463776378
 1  20.98859887518752  1.53982328612861  2.12599204080408
 1  22.12895753625363  2.06821535273527  1.02378664486449
 1  20.54357689028903  2.95354903110311  1.45980191139114

