%nproc=4
%Mem=2GB
# td=(NStates=1) CAM-B3LYP/6-31G(d,p) 

TD

0 1
12 -7.14913658295830  0.55019326002600  0.15896394499450
 6 -4.83645252635263 -1.95769788108811  0.52094772967297
 6 -4.84106341264126  2.88233256055606  1.18536199339934
 6 -9.42568715751575  3.04933733313331 -0.32503383638364
 6 -9.43425445304530 -1.81884205920592 -0.84831294629463
 7 -5.05347812941294  0.45375663616362  0.78981650205020
 6 -4.35320292559256 -0.72545316571657  0.82519442224222
 6 -2.88451941314131 -0.34058933103310  1.17618305950595
 6 -2.96732702190219  1.08676980948095  1.73690649704971
 6 -4.39944803150315  1.51523190359036  1.24495075627563
 6 -3.06104389538954  1.27173366066607  3.27632115821582
 6 -1.86183046394639 -0.53721773187319  0.04189351515152
 6 -0.37345559955996 -0.19069730113011  0.45417400030003
 6  0.53868324672467 -0.53783721582158 -0.70723237503750
 8  0.33231378107811 -0.93622502630263 -1.82774205450545
 8  1.76944396939694 -0.36058096489649 -0.30239445954595
 7 -7.14850245874587  2.58398980628063  0.50804596139614
 6 -6.14812194319432  3.34341529542954  0.91375935993599
 6 -6.51043903360336  4.75853648404840  0.91297906240624
 6 -7.79186978237824  4.82755264196420  0.39151605860586
 6 -8.20703125632563  3.47436772807281  0.20827116631663
 6 -5.61406718791879  5.84046513781378  1.45654217941794
 6 -8.69170838323832  5.94194926292629  0.22256227812781
 6 -8.28091728952895  7.23077916221622 -0.01321558385839
 7 -9.10232526822682  0.57769424772477 -0.39853155845585
 6 -9.83912557155715  1.71256193879388 -0.65016014021402
 6 -11.06058080098010  1.44218520892089 -1.14145889548955
 6 -11.20905942664266  0.05873975127513 -1.24736400260026
 6 -9.87486737043704 -0.42210069816982 -0.85909521242124
 6 -12.24579282138214  2.42135441634163 -1.39333986488649
 6 -12.37201724742474 -0.71650271247125 -1.79330450765077
 6 -12.08175450745075 -1.02782666786679 -3.30638874427443
 7 -7.27244349644964 -1.47748711031103  0.08671555285529
 6 -8.25496071837184 -2.27280321982198 -0.46219402530253
 6 -7.79023669116912 -3.60943512641264 -0.39585801480148
 6 -6.48080360236024 -3.60795511101110 -0.07265975807581
 6 -6.17741251945194 -2.21634778927893  0.20309193059306
 6 -8.69014935963596 -4.77482030093009 -0.87284683168317
 6 -5.27522406010601 -4.36814279957996  0.10301880178018
 8 -5.09473083488349 -5.53451610521052  0.00193622842284
 6 -4.16758016801680 -3.33936687078708  0.56219711171117
 6 -3.47105146934693 -3.70698678327833  1.83955513521352
 8 -3.77550120472047 -3.11531476427643  2.86646036133613
 8 -2.61435278317832 -4.70206835933593  1.69098718671867
 6 -1.96580921942194 -5.18638910821082  2.86433777077708
 6  2.87636141274127 -0.58884814251425 -1.30134550945095
 6  4.11993531593159 -0.33402725212521 -0.62065459415942
 6  5.06717032443244  0.39834315881588 -1.08041794199420
 6  5.08070548714871  1.20574511081108 -2.31786887798780
 6  6.32536899449945  0.55744455135514 -0.31400808700870
 6  7.54356209510951 -0.13891577347735 -1.01868153685369
 6  8.89490857325733 -0.02168190169017 -0.13397599179918
 6  10.13874476747675 -0.51621872017202 -0.80113650805080
 6  10.14042122832283 -2.08475781068107 -1.22557421892189
 6  11.37602871997200 -0.31816270687069  0.05880607930793
 6  12.65695286428643 -0.51805832173217 -0.64078461826183
 6  13.93522921072107 -0.13824058725873  0.22694990799080
 6  15.32133747774778 -0.20219283098310 -0.46061911221122
 6  15.58102220442044 -1.69383216901690 -0.79223650345034
 6  16.35052830683068  0.29700408650865  0.48233741844184
 6  17.76686239053905  0.51618974477448 -0.16695497539754
 6  18.75664106360636  1.24958680548055  0.82265462716272
 6  20.14257193699370  1.26639238383838  0.17559716331633
 6  20.34350457935793  1.96119176717672 -1.12655847724773
 6  21.08037591169117  1.90825519491949  1.23519022062206
 1 -4.11993225172517  3.73674205590559  1.40228474947495
 1 -10.32552630433043  3.82000958485849 -0.50167447004700
 1 -10.35268453025303 -2.34998505320532 -1.14042759025903
 1 -2.65475416611661 -0.98984864856486  2.17540477907791
 1 -1.94486412441244  1.60220870947095  1.43561792829283
 1 -2.15831955525553  0.91463695269527  3.73461367476748
 1 -3.16347113331333  2.43294275087509  3.25054962246225
 1 -3.95593657485749  0.79520388808881  3.65314919941994
 1 -1.81439396629663 -1.65704162456246 -0.31780676667667
 1 -2.06435063726373  0.11211330263026 -0.62945804740474
 1 -0.21126822082208  0.97747567106711  0.58427067896790
 1  0.04065811211121 -0.78799177457746  1.44320719661966
 1 -4.96623879157916  6.18660383548355  0.69607138933893
 1 -6.31042571287129  6.69431923072307  1.97514220342034
 1 -4.91649487828783  5.29134430583058  2.30894457315732
 1 -9.67024452335233  5.88658159425943  0.06914475897590
 1 -9.18463910431043  7.86741533103310 -0.21659106580658
 1 -7.18048308490849  7.34748531773177 -0.06496096669667
 1 -11.82291770457046  3.03298060336034 -2.28216451485148
 1 -13.12455766926693  1.82867850595059 -1.70688421212121
 1 -12.47908486988699  3.07241032643264 -0.57363886188619
 1 -12.59957248534853 -1.73789618781878 -1.32076228412841
 1 -13.40411641524152 -0.07174098709871 -1.69584694169417
 1 -12.98414888108811 -1.82811405060506 -3.72836583428343
 1 -12.17802797679768 -0.26042476837684 -3.97004457945795
 1 -11.05200854845484 -1.57989093309331 -3.25515463096310
 1 -9.19527042294230 -4.59255210351035 -1.78459604100410
 1 -8.13131683268327 -5.83748385658566 -0.90711493959396
 1 -9.49863202900290 -4.94604139113911 -0.06749500570057
 1 -3.52693282528253 -3.52316390089009 -0.32139879287929
 1 -1.41915300530053 -4.47439581688169  3.43446013301330
 1 -2.66006119351935 -5.37982862526253  3.75110233233323
 1 -1.23026445294529 -6.05561973907391  2.51005770867087
 1  2.76319099019902 -1.56594628452845 -1.72668674497450
 1  2.60258195839584  0.11927484588459 -2.04045606540654
 1  4.37832705700570 -0.95545355155516  0.32044442064206
 1  4.14369530583058  1.43190428672867 -2.54188753105311
 1  5.50204350275027  2.23992838303830 -2.11547590219022
 1  5.67304262706271  0.66768709890989 -3.12136343564356
 1  6.47404042734273  1.54962118981898  0.02238973667367
 1  6.17766111411141  0.07763451455146  0.60233124022402
 1  7.26755049714972 -1.30651172287229 -1.13896802550255
 1  7.71798332933293  0.28616549304931 -1.97939808670867
 1  9.03317941514151  1.12067468396840  0.06314027652765
 1  8.57353517631763 -0.59116747214722  0.81081570017002
 1  10.40707241874187  0.02952771907191 -1.91599543014301
 1  9.13675017141714 -2.32528957325733 -1.77412237343734
 1  10.88518160286029 -2.44341085368537 -1.75435162116212
 1  10.27785525912591 -2.77580920352035 -0.16421851255125
 1  11.36722148434843  0.69098350585058  0.50149211261126
 1  11.42958336803680 -1.07959029712971  0.95727320032003
 1  12.69967570327033 -1.60161702310231 -0.81506984188419
 1  12.66157506350635  0.03493297229723 -1.62578094189419
 1  13.72323382658266  0.97642089758976  0.39169583008301
 1  14.04565065536554 -0.70987342464246  1.12823799349935
 1  15.27404979707971  0.44487434783478 -1.45136479597960
 1  15.47305930693070 -2.23620034593459  0.09121152355236
 1  15.01080861266127 -2.04471266486649 -1.66367408780878
 1  16.75225328392839 -1.76791071967197 -1.18751085988599
 1  15.96180138983898  1.33108218091809  0.74550797179718
 1  16.49421112311231 -0.09076547224722  1.48952188388839
 1  18.11003019491950 -0.52822978677868 -0.55869187678768
 1  17.64882496369637  1.30531178967897 -0.92615609950995
 1  18.51956063886389  2.21784368396840  0.99781488238824
 1  18.76688296569657  0.67671128242824  1.70920727232723
 1  20.22516258295829  0.30094653045305  0.16265401580158
 1  19.94024085738574  3.09166815171517 -1.22725299479948
 1  21.43248936283628  1.86439231713171 -1.46083733773377
 1  19.72410324352435  1.38170957325733 -1.99750017331733
 1  20.99571958725873  1.33769307310731  2.23579302090209
 1  22.05834047454746  1.93603213441344  0.92357662386239
 1  20.73967650025003  3.10932460866087  1.49915584678468

