%nproc=4
%Mem=2GB
# td=(NStates=1) CAM-B3LYP/6-31G(d,p) 

TD

0 1
12 -7.22136380568057  0.64488272897290  0.11854990359036
 6 -4.83488236933693 -2.01848395969597  0.53147878277828
 6 -4.83681298759876  2.75720004730473  1.14438789598960
 6 -9.45571015981598  3.19990238963896 -0.46133746674667
 6 -9.52023305090509 -1.67964813981398 -0.92714082908291
 7 -5.14918770037004  0.36821808230823  0.72778029842984
 6 -4.36771437673767 -0.73518413881388  0.75337724052405
 6 -2.95873683488349 -0.44770004210421  1.16483192439244
 6 -2.95489577877788  1.06474760726073  1.64236704310431
 6 -4.39152723942394  1.45998637903790  1.17097335853585
 6 -2.84150194119412  1.30839732703270  3.11933545964596
 6 -1.89082336323632 -0.72765677577758  0.08750807660766
 6 -0.42328058205821 -0.51128936033603  0.53222180508051
 6  0.62920229862986 -0.76196962906291 -0.49079073087309
 8  0.24025457515752 -1.01920332413241 -1.65809508980898
 8  1.93342036703670 -0.60389529632963 -0.18671289138914
 7 -7.11537914641464  2.60860226752675  0.38081323812381
 6 -6.02226935793579  3.39625057895790  0.87458544254425
 6 -6.41011900160016  4.82686331673167  0.98819658415842
 6 -7.75677627302730  4.82537242394239  0.40381728872887
 6 -8.11675222842284  3.51933222452245  0.05459579877988
 6 -5.50927670887089  5.85744683598360  1.48444496969697
 6 -8.65677488988899  5.95547061506151  0.39912993489349
 6 -8.18899809760976  7.21196728102810 -0.02516677897790
 7 -9.15912094779478  0.74280075837584 -0.48712041734173
 6 -9.92062372137214  1.86642732533253 -0.62346747094709
 6 -11.27098184108411  1.55695668606861 -1.01471622122212
 6 -11.30778929962996  0.13079695699570 -1.28377764396440
 6 -9.89913979767977 -0.33004149224922 -0.83900320322032
 6 -12.37259550165017  2.48512079297930 -1.32655318621862
 6 -12.42157220292029 -0.71629269146915 -1.73063824102410
 6 -12.28886521852185 -0.97491137633763 -3.17730583598360
 7 -7.21974822692269 -1.38295765736574 -0.18474159285929
 6 -8.29937515981598 -2.21087702720272 -0.53917172307231
 6 -7.90756842434243 -3.59208339123912 -0.52069049804981
 6 -6.60852637463746 -3.63530784628463 -0.13704619671967
 6 -6.22142692089209 -2.20400655515552  0.12950457185719
 6 -8.65121546624662 -4.86007882678268 -0.76997654465447
 6 -5.45624216191619 -4.41441742704270  0.11292979287929
 8 -5.24398576037604 -5.60308296189619  0.05828186298630
 6 -4.22939634963496 -3.32524545864586  0.54948584058406
 6 -3.62953731793179 -3.66901298589859  1.83840502020202
 8 -4.10602425702570 -3.10360359315932  2.90906462176218
 8 -2.73366471437144 -4.63755190769077  1.70764885288529
 6 -2.11926456495650 -5.08815928522852  2.94499583658366
 6  2.89084286088609 -0.76466572427243 -1.31472684758476
 6  4.08734205660566 -0.59364321372137 -0.55666819551955
 6  5.17474108150815  0.20660398489849 -0.88018791899190
 6  5.20369778637864  0.90831536783678 -2.21871896299630
 6  6.38423488108811  0.23051185808581 -0.15659234543454
 6  7.68333607250725 -0.38649053095310 -0.88613828252825
 6  8.95772485488549 -0.30473020652065 -0.07345994019402
 6  10.25501639463946 -0.53587068536854 -0.91807820222022
 6  10.21230841704170 -1.92588192309231 -1.56211787328733
 6  11.43817493459346 -0.18332922352235 -0.08516831813181
 6  12.86505367436744 -0.42318883478348 -0.78937947774777
 6  14.00014570237024 -0.04094085728573  0.31747896089609
 6  15.36172151615161 -0.15360797249725 -0.38955200550055
 6  15.58232233443344 -1.63957674347435 -0.85832311211121
 6  16.54818807280728  0.49920430653065  0.39017820252025
 6  17.78739444374438  0.67552567836784 -0.28802708260826
 6  18.84097949744974  1.38745059185919  0.66829919161916
 6  20.31570925072507  1.52419816441644  0.29049865346535
 6  20.39316954585458  2.16827247524752 -1.15454127552755
 6  21.11328920302030  2.14100847024702  1.43439014061406
 1 -4.10679093759376  3.40840922262226  1.65440996199620
 1 -10.14264801650165  4.00803838773878 -0.62228653125312
 1 -10.35507476927693 -2.32820287498750 -1.19290283778378
 1 -2.62831152185219 -0.94914457815782  2.05203244184418
 1 -2.15497513551355  1.63294178277828  1.08325269176918
 1 -1.89697342064206  0.80002549154915  3.48429864326433
 1 -3.07277206340634  2.45431488808881  3.26978154565457
 1 -3.43992497369737  0.86998136583658  3.79995387988799
 1 -2.01082360926093 -1.88830475087509 -0.18011299729973
 1 -1.96287048924892 -0.18318622732273 -0.70030513211321
 1 -0.61368846284628  0.70377830133013  0.78667091899190
 1 -0.03780973467347 -1.12873584898490  1.49333220912091
 1 -4.79096126382638  6.01855703080308  0.62417419961996
 1 -5.97330200050005  7.09829962876288  1.62931762096210
 1 -4.81323455225523  5.52171734313431  2.36009968866887
 1 -9.67173467236724  5.87796073217322  1.08071591609161
 1 -8.87137777817782  8.03709229872987  0.22041263456346
 1 -7.21852688928893  7.44116468566857 -0.21952642324232
 1 -12.04826023882388  3.25613291859186 -2.21985828422842
 1 -13.07054226772677  1.90463610171017 -1.33071659535954
 1 -12.48698565996600  3.15547863326333 -0.52742424042404
 1 -12.60132266036604 -1.66846924512451 -1.26577678557856
 1 -13.52900890449045 -0.18843265626563 -1.62041939893989
 1 -13.06381684788479 -1.67446868606861 -3.47945094279428
 1 -12.09450962496250 -0.18020674657466 -3.86478405340534
 1 -11.46872021962196 -1.43943688768877 -3.50141925742574
 1 -8.92040293619362 -4.76762961126113 -1.84252183358336
 1 -7.92109581058106 -5.62546265446545 -0.48534276237624
 1 -9.60736290209021 -4.96846363336334 -0.16487474367437
 1 -3.58772890489049 -3.52494407890789 -0.27823447644764
 1 -1.68345943594359 -4.26296467376738  3.62812949994999
 1 -3.04981016841684 -5.56783742614261  3.51285850795080
 1 -1.47457888438844 -5.82865704280428  2.52488919181918
 1  2.76830150125012 -1.91841153105310 -1.69621369766977
 1  2.48280998119812 -0.08256533813381 -2.01076309610961
 1  4.24135335963596 -1.29331733793379  0.30355273147315
 1  4.20899183548355  0.87404850115011 -2.54554789708971
 1  5.62426572497250  2.06014040424042 -1.82303665826583
 1  5.74948027082708  0.43303363356336 -2.92844414371437
 1  6.57197022032203  1.33265949364936  0.29107660536054
 1  6.33779712771277 -0.28927217611761  0.76112711981198
 1  7.54803854595460 -1.59806087778778 -1.11174530323032
 1  7.65512704370437 -0.16439956345635 -1.96182632953295
 1  8.90976707390739  0.72534515101510  0.21913587608761
 1  8.89450727352735 -0.86727508290829  0.84358897749775
 1  10.42810452195220  0.11315608190819 -1.66306013661366
 1  9.49364586098610 -2.12681972627263 -2.37557251845185
 1  11.14401748644864 -2.27468398099810 -2.00431661766177
 1  9.98107558115812 -2.56132775537554 -0.89541163186319
 1  11.43988875107511  0.85105951345135  0.29307127052705
 1  11.42714312401240 -0.92574491259126  0.75790326332633
 1  13.21404714041404 -1.52310917231723 -0.99993832873287
 1  12.61471037703770  0.21991147014701 -1.65988435223522
 1  13.91867337053705  1.00803405890589  0.78443510401040
 1  13.83556964726473 -0.45282772007201  1.14557972767277
 1  15.20965335743574  0.48508836923692 -1.21761142064206
 1  15.68453045404541 -2.35195192109211 -0.10793839143914
 1  14.87504503630363 -2.04384257785779 -1.71455917631763
 1  16.58239629822982 -1.88111203980398 -1.33072518131813
 1  16.05676088578858  1.37411648434843  0.58015143614361
 1  16.76681838383838 -0.08517491319132  1.47810074177418
 1  18.30850004190419 -0.18072503630363 -0.71322733033303
 1  17.62994307550755  1.43504476297630 -1.05027851175117
 1  18.38998768156815  2.45102700230023  0.81504660556056
 1  18.91535781318132  1.04489810111011  1.67160351195120
 1  20.64864493119312  0.37578401420142  0.26894464486449
 1  19.95815264856486  3.19883886878688 -1.10104037353735
 1  21.49626574047405  2.44539041694169 -1.54817607160716
 1  19.86488732193219  1.70634203650365 -1.99653007630763
 1  21.14476449174918  1.49981928572857  2.36193563516352
 1  22.23861850235023  2.13999253045304  1.21498576477648
 1  20.69143167576758  3.15132880908091  1.79324525572557

