%nproc=4
%Mem=2GB
# td=(NStates=1) CAM-B3LYP/6-31G(d,p) 

TD

0 1
12 -7.07644931423142  0.52529076977698  0.11643969256926
 6 -4.89492837393739 -2.00806291759176  0.48449408430843
 6 -4.86447575387539  2.88268259555956  1.19501295849585
 6 -9.35049963876387  3.05262766216622 -0.36905823882388
 6 -9.53415444304430 -1.77937811281128 -0.87029514451445
 7 -5.06691947354735  0.44301556205621  0.79925744614461
 6 -4.35638324362436 -0.70479109950995  0.78648055085509
 6 -2.83752471367137 -0.44077935003500  1.23996943814381
 6 -2.93067335653565  1.13298443094309  1.58797160356036
 6 -4.42224031073107  1.45793617401740  1.12565882708271
 6 -2.85651344234423  1.36948343564356  3.09282280838084
 6 -1.90258453935394 -0.73250726082608  0.04669399519952
 6 -0.42376063006301 -0.15483371477148  0.36769535243524
 6  0.46948632703270 -0.48476190829083 -0.73945559735974
 8  0.13353390309031 -0.98166957075708 -1.76633591389139
 8  1.76406343134313 -0.20562546934693 -0.37883210331033
 7 -7.07689529802980  2.59017042434243  0.30999615641564
 6 -6.03125025602560  3.34097505140514  0.77448543254325
 6 -6.44064205390539  4.77190782118212  0.85628339283928
 6 -7.74295489088909  4.83788367506751  0.48960586758676
 6 -8.12394294749475  3.42393268456846  0.11007134633463
 6 -5.51697747894789  5.82006309760976  1.30238676387639
 6 -8.59112832523252  5.97311237923792  0.40464048594859
 6 -8.17366656445645  7.26244232853285  0.13844958265827
 7 -9.11205624132413  0.65550202850285 -0.52226393169317
 6 -9.88755041404140  1.74301498409841 -0.61422654685469
 6 -11.18200294319432  1.44730572097210 -1.07029177877788
 6 -11.22037055775577  0.06923080038004 -1.21168043424342
 6 -9.90438032173217 -0.34577306540654 -0.91047034993499
 6 -12.35190343244325  2.45495777667767 -1.22208273917392
 6 -12.39184923062306 -0.81778284048405 -1.72730790799080
 6 -12.39129546154616 -1.23461734693469 -3.06602470787079
 7 -7.16569282138214 -1.42093145474547 -0.19771288998900
 6 -8.22100732303230 -2.26513245274527 -0.56217402330233
 6 -7.82750041754175 -3.67529171207121 -0.50437886688669
 6 -6.49469499149915 -3.65769008450845 -0.08094058615862
 6 -6.13583836203620 -2.21019717421742  0.00722234363436
 6 -8.63460380508051 -4.92000481938194 -0.75589513651365
 6 -5.34664120182018 -4.39460544584459  0.20939943984398
 8 -5.11725308710871 -5.54231688528853  0.20418645344534
 6 -4.19286269626963 -3.41684461856186  0.63833472547255
 6 -3.54365873007301 -3.61726781138114  1.95040622032203
 8 -3.84150780538054 -3.09107234003400  2.98498221352135
 8 -2.81315266316632 -4.74275242774277  1.85841392939294
 6 -2.31345398389839 -5.42467293659366  3.03532486948695
 6  2.75694947154715 -0.41412066976698 -1.40281565646565
 6  4.10970429282928 -0.40857470687069 -0.76444897359736
 6  5.15315892329233  0.38462178667867 -1.02079197939794
 6  5.15651306790679  1.62082661896190 -2.14963205430543
 6  6.41427788538854  0.44664347124712 -0.22650933713371
 6  7.73033077197720 -0.03786566846685 -0.93342301100110
 6  8.92744182658266  0.01182144864486 -0.15896849104910
 6  10.16570746374637 -0.44290138843884 -0.94271066546655
 6  10.17248443464347 -1.98532786768677 -1.33661532303230
 6  11.37234835193519 -0.29694058465847 -0.01592139343934
 6  12.68441561056106 -0.48101461736174 -0.80285082488249
 6  13.86997268506851 -0.08951571477148  0.11339855285529
 6  15.33422876687669 -0.20355296699670 -0.54679773007301
 6  15.62317641984198 -1.67592037783778 -0.83815109490949
 6  16.33353660766076  0.27186157225723  0.46119530423042
 6  17.84692039633963  0.37181530733073 -0.15278355825583
 6  18.82993839333934  1.12977482428243  0.83712607430743
 6  20.34081176097610  1.20258600320032  0.36517612121212
 6  20.29756998589859  2.14367001500150 -0.92033785518552
 6  21.20221809590959  1.86809117851785  1.40610731233123
 1 -4.13600385888589  3.49074745644564  1.34027854885489
 1 -10.25154890659066  3.86876446034603 -0.31657596019602
 1 -10.34575383718372 -2.63874392909291 -1.10063361086109
 1 -2.72955164586459 -0.96530619431943  2.17043428202820
 1 -2.32196183418342  1.56130461906191  1.13230759725973
 1 -1.78703242654265  1.09661515051505  3.63125333873387
 1 -3.08099288548855  2.47578703530353  3.39748431593159
 1 -3.55613659485949  0.89530389808981  3.59090297479748
 1 -1.87984051095109 -1.92686860726073 -0.14513949995000
 1 -2.24150835303530 -0.10616852555256 -0.82528763036304
 1 -0.55128222222222  0.81516944044404  0.70218247014701
 1 -0.05463141684168 -0.57838081348135  1.35189806570657
 1 -5.00855302300230  6.20152532763276  0.45764754695470
 1 -6.22745741604160  6.55685548434843  1.82617730693069
 1 -4.66724995379538  5.39964513591359  2.03643732243224
 1 -9.65535303420342  5.84544748084808  0.48985683018302
 1 -8.83744438483848  8.05832442194219 -0.09999940664066
 1 -7.07647268386839  7.32421299049905 -0.08440291089109
 1 -12.26567197999800  2.99962726802680 -2.35540183858386
 1 -13.33459867336734  1.70963660176018 -1.28638216191619
 1 -12.61050801220122  3.18825191059106 -0.37228872687269
 1 -12.39721224932493 -1.84051644984498 -1.07045725362536
 1 -13.35394139773977 -0.26121993499350 -1.54845220222022
 1 -13.11732219841984 -1.94862610181018 -3.24779777747775
 1 -12.42185235923592 -0.42595132103210 -4.03895147014701
 1 -11.38826217381738 -1.62355529952995 -3.35512462796280
 1 -8.80717161306131 -4.94369721802180 -1.83243082448245
 1 -8.09081278227823 -5.86364647284728 -0.43816804490449
 1 -9.59354151995199 -4.94570135713571 -0.07930618681868
 1 -3.46702683468347 -3.64197578207821 -0.16555320832083
 1 -1.47063815381538 -4.76147452475248  3.51097778477848
 1 -3.15243043044304 -5.44685532793279  3.84229145124513
 1 -1.95270669716972 -6.33159733683368  2.50778748164817
 1  2.59557422852285 -1.35612530243024 -1.70994507080708
 1  2.71872357255726  0.14950786918692 -2.33137515731573
 1  4.13768299259926 -1.00297830403040  0.14630700690069
 1  4.16791772807281  1.84552564886489 -2.55061840414041
 1  5.38360165856586  2.65857024722472 -1.84917927252725
 1  5.67242256505651  1.23493382358236 -3.14398569786979
 1  6.44786781008101  1.44399062676268 -0.17821032333233
 1  6.17023037103710 -0.21282453135314  0.61189219631963
 1  7.36922066416642 -1.00004107580758 -1.51382551125113
 1  7.99082061306131  0.62344922142214 -1.92436258315832
 1  9.20010610781078  0.89843245974597  0.22872683518352
 1  8.71210903370337 -0.69788814421442  0.62545716431643
 1  10.37742945444544  0.17779254555456 -1.69352318291829
 1  9.46289278567857 -2.15406245054505 -2.05561052225223
 1  11.24031711641164 -2.28841535413541 -1.72495868186819
 1  10.00927840144014 -2.37921954455446 -0.48223031373137
 1  11.30514527672767  0.59838424592459  0.70395235863586
 1  11.36109651935193 -1.27433977207721  0.57082455545555
 1  12.79034477017702 -1.52391925332533 -1.38237657255726
 1  12.70843974997500  0.37172665166517 -1.62703106690669
 1  13.66902840604060  0.88742199769977  0.39454611511151
 1  13.88999508980898 -0.91595403270327  1.10850602030203
 1  15.38574096619662  0.30862072247225 -1.42999265876588
 1  15.84990699169917 -2.45977270317032 -0.04626222382238
 1  14.92125965776578 -2.05028322192219 -1.68161588198820
 1  16.62068012661266 -1.60518444704470 -1.48512062086209
 1  16.05757096679668  1.41684075677568  0.70697411841184
 1  16.24996669866987 -0.34724111981198  1.44787771947195
 1  18.32450164206421 -0.60576754055406 -0.34841084868487
 1  17.51438151935194  0.92582384088409 -1.08286177007701
 1  18.63632231503150  2.10408230783078  1.04816991789179
 1  18.80267654505450  0.60720433173317  1.76473282488249
 1  20.65818588528853  0.22595903170317  0.09345709610961
 1  19.82415924922492  3.11564054895490 -0.74163443294329
 1  21.46292240614061  2.43179905780578 -1.33040429442944
 1  19.82241307450745  1.56298770107011 -1.68825924922492
 1  21.10903091839184  1.41007031083108  2.34733417501750
 1  22.27484212471247  1.91437996919692  0.99380364656466
 1  20.89015154775478  2.93120679687969  1.65766169736974

