%nproc=4
%Mem=2GB
# td=(NStates=1) CAM-B3LYP/6-31G(d,p) 

TD

0 1
12 -7.11893356265627  0.65797403810381  0.08524657325733
 6 -4.79940882198220 -1.98189030033003  0.58620425532553
 6 -4.82936224252425  2.77238156545655  1.09892334953495
 6 -9.43691828062806  3.08565096449645 -0.38619995299530
 6 -9.55388641624162 -1.72440261526153 -0.87741585658566
 7 -5.10620340194019  0.36899816031603  0.71587910831083
 6 -4.32970057535754 -0.72859347974797  0.84280618341834
 6 -2.82899386058606 -0.46791206330633  1.30953639483948
 6 -2.95373566276628  1.12552368486849  1.69536234263426
 6 -4.33170125682568  1.41346172657266  1.06452271347135
 6 -2.86290408140814  1.33898038533853  3.19018254435444
 6 -1.91898617951795 -0.65476948704870  0.06230555635564
 6 -0.43743199719972 -0.51204943634363  0.58195677857786
 6  0.53044242264226 -0.79648308040804 -0.57767941974197
 8  0.20351090079008 -1.08484988878888 -1.69577885818582
 8  1.78260528552855 -0.55040994779478 -0.21969618971897
 7 -7.15565317381738  2.59015042234223  0.39286444324432
 6 -6.03677080808081  3.25409636353635  0.74031201520152
 6 -6.48497648734874  4.75921655205521  0.78535630013001
 6 -7.81435203060306  4.80863074977498  0.43816072307231
 6 -8.12172272547255  3.50612090339034  0.21831217041704
 6 -5.62806858805881  5.83631472277228  1.44764128932893
 6 -8.61282049444945  5.94357942594259  0.43429345124512
 6 -8.30237943574357  7.24862094639464  0.08618435613561
 7 -9.08528356405641  0.67092357065707 -0.54403610891089
 6 -9.85876753575358  1.82793347594759 -0.62123724792479
 6 -11.22952769566957  1.44214520492049 -1.18733348294829
 6 -11.25762428312831  0.06874075137514 -1.27986725292529
 6 -10.00315019871987 -0.43337182528253 -0.84046334923492
 6 -12.25299354145415  2.56804908580858 -1.46732726362636
 6 -12.38107815351535 -0.82102316451645 -1.84806998419842
 6 -12.29406573857386 -0.95845973117312 -3.32363046844684
 7 -7.21982823492349 -1.37000636223622 -0.11409452815282
 6 -8.28818404070407 -2.19387532703270 -0.48204601050105
 6 -7.83706137363736 -3.55069925282528 -0.43742217121712
 6 -6.43173869586959 -3.55666998249825 -0.09698219031903
 6 -6.13075785398540 -2.14910106460646  0.16825844724472
 6 -8.58300864556456 -4.78413123202320 -0.86226577357736
 6 -5.28071460916092 -4.37214319961996  0.17193569346935
 8 -5.11459282108211 -5.53704635823582  0.06952298709871
 6 -4.12138554855485 -3.30639357345735  0.65907679967997
 6 -3.51162552675268 -3.69877596219622  2.00839201890189
 8 -3.63541719631963 -3.05096832963296  2.99740345564556
 8 -2.72169351725173 -4.77259541204120  1.78221630963096
 6 -2.07124976347635 -5.31655212451245  3.01638297529753
 6  2.78362213881388 -0.63107236493649 -1.33822919781978
 6  4.06115943834383 -0.53089693909391 -0.68501102980298
 6  5.06889049644964  0.34943826832683 -0.99396929712971
 6  4.96593401000100  1.35903043934393 -2.23123021412141
 6  6.40562702030203  0.51364017091709 -0.22371905810581
 6  7.63794153305331  0.10556867496750 -0.99745941464146
 6  8.98620770317032 -0.01885161866187 -0.18866146034603
 6  10.33862475547555 -0.32833993229323 -0.92259865426543
 6  10.06075326152615 -1.81391072597260 -1.53758542004200
 6  11.49992110921092 -0.16266715731573  0.07081728042804
 6  12.77452462146215 -0.60915743164316 -0.71322186198620
 6  13.95558124592459 -0.18308507170717  0.27312452545255
 6  15.27875321932193 -0.27495010671067 -0.48978202850285
 6  15.59001310351035 -1.81936472227223 -0.75723300310031
 6  16.39980323432343  0.30025441154115  0.43895308000800
 6  17.74853055735574  0.47715584138414 -0.14051233113311
 6  18.67581298079808  1.26123797059706  0.74917727942794
 6  20.17818549834984  1.30178592319232  0.16160576417642
 6  20.19248947784778  2.18454410241024 -1.10639646104610
 6  21.11179905400540  1.88251262066207  1.29825652725273
 1 -4.05794605310531  3.45848423012301  1.34067858885889
 1 -10.08326207790779  3.93920150405041 -0.42113641624162
 1 -10.31501076287629 -2.62828288298830 -0.93318686618662
 1 -2.62705139583958 -1.12097176087609  2.22539977857786
 1 -1.93640327832783  1.58778726732673  1.09023338983898
 1 -1.83785750905090  1.05381087008701  3.57366758015802
 1 -3.21575636183618  2.31753120972097  3.47375194269427
 1 -3.53065404660466  0.53285765346535  3.76234011851185
 1 -1.98801132803280 -1.56493241364136 -0.52087707370737
 1 -2.22140634283428  0.26961905320532 -0.70146524812481
 1 -0.36181327532753  0.52837076057606  1.03317556945695
 1 -0.39977593129313 -1.03540651605161  1.63101597749775
 1 -5.15130729842984  6.32533770887089  0.66549833203320
 1 -6.15587025732573  6.79009880868087  1.71519620882088
 1 -4.89680290909091  5.70202537393739  2.12294597329733
 1 -9.68351585048505  5.93197613371337  0.58037588208821
 1 -9.07939858025803  8.00773936343634  0.26830742404240
 1 -7.26496153275327  7.65218578777878  0.00915644504450
 1 -11.87401281408141  3.41733903920392 -2.14025032343234
 1 -13.08760397389739  1.87855349344934 -1.69269279297930
 1 -12.42278924032403  2.93362644804480 -0.33954545254525
 1 -12.39290181828183 -1.85169756795680 -1.37276748464846
 1 -13.33954995859586 -0.26286009900990 -1.84029138613861
 1 -13.18054852105210 -1.42563380258026 -3.71202420012001
 1 -12.30820099409941  0.09659093319332 -3.56126370137014
 1 -11.33894724232423 -1.46219916391639 -3.81219033453345
 1 -8.73774467036704 -4.83770661896190 -1.94591217261726
 1 -7.83769747074707 -5.77069717791779 -0.54330855895590
 1 -9.52076424222422 -5.06627341434143 -0.42865112131213
 1 -3.28007813981398 -3.34629621412141 -0.00745739873987
 1 -1.21077216721672 -4.69073745104510  3.46706339333933
 1 -2.93749893729373 -5.30566120852085  3.88520574267427
 1 -1.73502492899290 -6.39298347544755  2.69834653755376
 1  2.72235690679068 -1.58700839073907 -1.91932600890089
 1  2.43971567176718  0.19684260266027 -1.99296131593159
 1  4.46572579687969 -1.12656066226623  0.21293366956696
 1  3.99837077337734  1.01526262256226 -2.75311865416542
 1  5.02822612101210  2.23915830603060 -2.00507486208621
 1  5.86761208400840  1.07306763696370 -2.81564286358636
 1  6.37287031033103  1.64302052975298  0.15927342504250
 1  5.99958330633063 -0.16488973787379  0.70168117521752
 1  7.46644038613861 -0.92037310901090 -1.46645077377738
 1  7.89571110211021  0.93423029952995 -1.77531767866787
 1  9.18529462666267  0.95013763026303  0.31342530503050
 1  9.10435825862586 -0.72392074747475  0.67283190179018
 1  10.50545225672567  0.36440120642064 -1.78350218081808
 1  9.14293078947895 -1.87653469776978 -2.06420138133813
 1  10.79879296399640 -2.14877138973897 -2.12523870987099
 1  10.23005047864786 -2.53862548514852 -0.69052114281428
 1  11.47465222742274  1.13075748324832  0.25336730013001
 1  11.31681209090909 -0.81752409050905  0.89259673267327
 1  12.79876561226122 -1.77093395479548 -0.75981431633163
 1  12.93894280028003 -0.19224974597460 -1.78874723852385
 1  13.90141164436444  0.87257051255126  0.59461612211221
 1  13.89527561786179 -0.70946338363836  1.20180535023502
 1  15.23879627172717  0.28585844624462 -1.24321398089809
 1  15.28722072307231 -2.38788551445145  0.19811221362136
 1  14.92011954375438 -2.00830902450245 -1.70251797219722
 1  16.67665572417242 -2.03313724232423 -1.03967607640764
 1  16.11009621932193  1.24650372307231  0.85228864986499
 1  16.44244594659466 -0.34564095979598  1.37251018271827
 1  18.36683587548755 -0.52789975377538 -0.42704871247125
 1  17.54471455265526  0.81163242174217 -1.09906339023902
 1  18.34307299009901  2.27880978057806  1.19683478437844
 1  18.69592586998700  0.79599321062106  1.70645699729973
 1  20.65000506720672  0.45644208000800 -0.06802905250525
 1  19.88867570087009  3.27329631453145 -1.01676194569457
 1  21.19471558545855  2.04359023692369 -1.41321257525753
 1  19.42739357255725  1.75848725102510 -1.67139756305631
 1  20.90125014031403  1.04966427022702  2.15838528012801
 1  22.10717535803580  1.78409694089409  0.97225149134914
 1  20.80791332393239  2.88650232643264  1.56342227342734

