%nproc=4
%Mem=2GB
# td=(NStates=1) CAM-B3LYP/6-31G(d,p) 

TD

0 1
12 -7.09402107140714  0.66682492319232  0.14803285188519
 6 -4.84649353045304 -1.83564567586759  0.47260289518952
 6 -4.82644195049505  2.83905823312331  1.18027148434844
 6 -9.41439602840284  3.00693309270927 -0.24231556455646
 6 -9.56330735833583 -1.78552872787279 -0.87077519251925
 7 -5.09662244384438  0.54424568506851  0.59370689108911
 6 -4.29216682198220 -0.56957757815782  0.66312821562156
 6 -2.91781274247425 -0.29390466256626  1.19074451565157
 6 -3.00101039023902  1.09882101460146  1.67848065446545
 6 -4.31589967666767  1.52928330873087  1.20568682988299
 6 -2.91129892089209  1.29531601890189  3.18091161726173
 6 -1.79612389328933 -0.54238824892489  0.12592191799180
 6 -0.45072332633263 -0.34883311471147  0.51935051795180
 6  0.63102248064806 -0.71497492959296 -0.68185983778378
 8  0.16186673637364 -0.91336274007401 -1.79863914421442
 8  1.78799582458246 -0.46512141894189 -0.29402362246225
 7 -7.15268287678768  2.65558696599660  0.42829798659866
 6 -6.03435056605661  3.37909886378638  0.92595057905791
 6 -6.42178016771677  4.77790842124212  0.89300706520652
 6 -7.79518011341134  4.80935082178218  0.49875678267827
 6 -8.22628318151815  3.43738402970297  0.23028336753675
 6 -5.65237101830183  5.97381847314731  1.35567209240924
 6 -8.74094330673067  5.94781984998500  0.44897491939194
 6 -8.46719591739174  7.22541862616262  0.14464020172017
 7 -9.12856789248925  0.59602608090809 -0.49455116041604
 6 -9.89357101610161  1.70744142674267 -0.60326545074507
 6 -11.19951469436944  1.38905989638964 -1.12593734333433
 6 -11.31592011271127  0.00413429072907 -1.30819008520852
 6 -9.96955683938394 -0.43975246334633 -0.95200450335034
 6 -12.27941618371837  2.40813309420942 -1.49910044094409
 6 -12.47358740444044 -0.88653971617162 -1.69660483768377
 6 -12.28717504950495 -1.31251513671367 -3.16999510491049
 7 -7.18190444254425 -1.39420878247825 -0.16526964566457
 6 -8.25090031233123 -2.17129306880688 -0.57591539743974
 6 -7.82649031653165 -3.57379156205621 -0.50793922292229
 6 -6.43833935593559 -3.52228654415442 -0.13286577867787
 6 -6.12861763996400 -2.18373452795280 -0.03262164076408
 6 -8.57512785748575 -4.75832865176518 -0.76859640664066
 6 -5.22013855155516 -4.28236422172217  0.15070357025703
 8 -5.05193655545555 -5.51736439003900  0.15027106190619
 6 -4.18774218421842 -3.22285521962196  0.44334522652265
 6 -3.53293765796580 -3.65280136473647  1.84903608330833
 8 -3.68204185878588 -3.08482171497150  2.83690740604060
 8 -2.63541488938894 -4.64797294979498  1.74942303030303
 6 -2.02896553505351 -5.05697616691669  2.91636297329733
 6  2.81994577117712 -0.80793005070507 -1.23481885678568
 6  4.08271159355936 -0.50043389278928 -0.57240976967697
 6  5.16439004640464  0.30180350485048 -0.90548044824482
 6  5.13696111271127  1.27115165146515 -2.02904999609961
 6  6.44103056065607  0.35361416831683 -0.08651533773377
 6  7.63200093899390 -0.19757163906391 -0.96226589528953
 6  8.93083216561656 -0.16787652115212 -0.09697229142914
 6  10.20779167216722 -0.49314641294129 -0.82065846024602
 6  10.09212639883988 -2.00041937683768 -1.30311197269727
 6  11.47030814791479 -0.37899879047905  0.09824002270227
 6  12.74001117011701 -0.54993150905091 -0.63150369016902
 6  13.93441912971297 -0.10168693189319  0.19927714071407
 6  15.30072541654165 -0.25740835253525 -0.56039909020902
 6  15.51138524072407 -1.70196298209821 -0.79899717951795
 6  16.31778503250325  0.35374976107611  0.43222240694069
 6  17.70585628992900  0.62800092589259 -0.21971025092509
 6  18.70442584208421  1.24858670547055  0.76720908260826
 6  20.21781946174617  1.30077582218222  0.14058366196620
 6  20.42468269716971  2.16338198619862 -1.18177399879988
 6  21.14075194929493  1.76844121352135  1.25966266786679
 1 -4.09868012651265  3.59862824452445  1.82854737573757
 1 -10.39210296199620  3.61288887278728 -0.01258556115612
 1 -10.29079834163416 -2.46653670837084 -1.24287783528353
 1 -2.87429612031203 -0.98350801450145  2.12146938553855
 1 -2.25588522652265  1.66943543214321  1.07114148064807
 1 -1.99108283158316  1.09981547054705  3.55731594499450
 1 -3.26669145534553  2.38110756735674  3.39437400490049
 1 -3.49100008120812  0.70988535623562  3.68898278277828
 1 -1.91773430033003 -1.54122004240424 -0.36700168616862
 1 -2.05390959315932  0.29716180748075 -0.67901300290029
 1 -0.17952504650465  0.67737566106611  0.93918617051705
 1 -0.31775772947295 -1.11463443884388  1.22561543744374
 1 -4.96672884058406  6.32749792489249  0.65206698889889
 1 -6.35771044134413  6.63550334913491  1.84570926012601
 1 -4.80831406020602  5.57992316371637  2.05149882858286
 1 -9.83866136503650  5.78707164326433  0.60696854135414
 1 -9.41658229862986  7.91620020952095  0.27421801510151
 1 -7.46899193579358  7.49331990119012 -0.23141761236124
 1 -11.89557497029703  2.92700000530053 -2.36098239663966
 1 -13.13041825532553  2.11868750685068 -1.68078160186019
 1 -12.44042100350035  3.20008309370937 -0.71482298029803
 1 -12.53309583768377 -1.91095349354936 -1.12300250815082
 1 -13.45371137473748 -0.34963877687769 -1.59404676167617
 1 -13.29847031323132 -1.92327356655666 -3.54663766146615
 1 -12.40365053905391 -0.56265499139914 -4.02605018001800
 1 -11.48175152275228 -1.97831077507751 -3.50537965346535
 1 -8.54154505040504 -4.95585843414341 -1.99677725912591
 1 -7.88680238123812 -5.64300440864086 -0.35815004310431
 1 -9.59025119091909 -4.85573236023602 -0.40243850005001
 1 -3.49902003400340 -3.15161674617462 -0.41152780578058
 1 -1.47891898189819 -4.25915429272927  3.35417210421042
 1 -2.80991617901790 -5.38263890629063  3.78064528662866
 1 -1.42593401990199 -5.94385856295630  2.45701240414042
 1  2.54140881198120 -1.87335702560256 -1.41835591189119
 1  2.75212691289129 -0.21751883348335 -2.29879189898990
 1  4.05201442574258 -1.02667067326733  0.33317569376938
 1  4.03639457575758  1.38014911121112 -2.45582892519252
 1  5.48851214961496  2.08177256745675 -1.56278063266327
 1  5.61576689948995  0.79948027822782 -2.97184848414842
 1  6.47457048034804  1.42930915861586  0.26066356405641
 1  6.38569191719172 -0.47495074397440  0.69319032613261
 1  7.43797753985399 -1.06052712441244 -1.38838296699670
 1  7.89669120012001  0.51864874137414 -1.87122726962696
 1  9.04475057225723  0.86537915441544  0.40429439193919
 1  8.91541936473647 -0.96415477087709  0.70291491009101
 1  10.01401311281128  0.08210297659766 -1.69418324892489
 1  9.22771926832683 -2.21765881018102 -1.92935789698970
 1  10.91029411411141 -2.32125863846385 -1.97855404140414
 1  10.09251672527253 -2.45751737433743 -0.26367845854585
 1  11.21643640584058  0.55490989848985  0.47559952335233
 1  11.41100150985098 -1.21969430753075  0.88377585058506
 1  12.70611634733473 -1.67384424582458 -0.92768110301030
 1  12.79828873487349 -0.12480300130013 -1.62207057085709
 1  13.66917842104210  1.06208946444644  0.60704736523652
 1  13.99024511481148 -0.51457389468947  1.21171634133413
 1  15.30028242034203  0.47084694509451 -1.61925158465847
 1  15.79750175117512 -2.20178690459046  0.14993739613961
 1  14.88591612341234 -2.18685687928793 -1.45618333873387
 1  16.57028508710871 -1.75696962556256 -1.19300140894089
 1  15.96375158485848  1.24052312501250  0.91024444544454
 1  16.53461516351635 -0.35216161186119  1.27564049574957
 1  18.05858505040504 -0.50596756055606 -0.37728373597360
 1  17.71998207940794  1.38350960946095 -1.04876836073607
 1  18.44754343714371  2.27742964256426  0.98411351225123
 1  18.99607588498850  0.79188279957996  1.63921027262726
 1  20.33925399209921  0.22567900370037 -0.03642589218922
 1  19.73879071237124  3.09957894279428 -1.24044431393139
 1  21.50142625652565  2.34114999289929 -1.19401065506551
 1  19.92647348054805  1.58152955525553 -2.06213663696370
 1  21.40055007030703  1.10688999279928  2.03750319191919
 1  22.24193883438344  1.88108663986399  0.85906017221722
 1  20.82419495209521  2.83550722692269  1.64602053325333

