%nproc=4
%Mem=2GB
# td=(NStates=1) CAM-B3LYP/6-31G(d,p) 

TD

0 1
12 -7.13796546584658  0.61273951465147  0.21698974757476
 6 -4.89002788388839 -2.03093520482048  0.62157779267927
 6 -4.82582188848885  2.80232455975598  1.20989444664466
 6 -9.38500308910891  3.15145754515452 -0.29420075307531
 6 -9.58887991559156 -1.74118429342934 -0.86053416841684
 7 -5.12653543514351  0.44587584808481  0.70679820022002
 6 -4.32780038533853 -0.69557017741774  0.83415531833183
 6 -2.95634659585959 -0.44444971707171  1.26967240844084
 6 -2.95166545574557  1.03117424992499  1.72378518491849
 6 -4.34517260396040  1.49002938333833  1.19874613581358
 6 -2.84367215821582  1.10253674097410  3.17531105720572
 6 -2.06634091499150 -0.57551156125613  0.00168949474948
 6 -0.62868112211221 -0.54440267166717  0.36320490339034
 6  0.38778815721572 -0.58982241434143 -0.72702435423542
 8  0.14118466816682 -0.75797720152015 -1.87163644394439
 8  1.67209423442344 -0.35207011381138 -0.25832005210521
 7 -7.14654226272627  2.60885229252925  0.41486664346435
 6 -6.09628675967597  3.33651460536054  0.85743372737274
 6 -6.43770175987599  4.78067869826983  0.92629039353935
 6 -7.73765436083608  4.86101598829883  0.44100100710071
 6 -8.09928048124812  3.48500879217922  0.13009334853485
 6 -5.48075385658566  5.92449354065406  1.29915644084408
 6 -8.65201441384139  6.04313938193819  0.29800982288229
 6 -8.29251844964496  7.25460154445445 -0.03272753505351
 7 -9.10400543624362  0.67078355665567 -0.48698040334033
 6 -9.84309596859686  1.83088377097710 -0.56973209740974
 6 -11.20579532243224  1.43917490789079 -1.08033278287829
 6 -11.23100162086209  0.10074395169517 -1.18383764996500
 6 -9.93467335103510 -0.35191367946795 -0.82516181908191
 6 -12.28591683378338  2.44357663856386 -1.35528605950595
 6 -12.40237028272827 -0.67736879907991 -1.62888806600660
 6 -12.35080141214121 -1.01543542874287 -3.19402750815081
 7 -7.25454170627063 -1.33340270187019 -0.18349146784678
 6 -8.32159738203820 -2.20081602110211 -0.56031383728373
 6 -7.84490215771577 -3.60468465136514 -0.61481991099110
 6 -6.54162968496850 -3.50068438393839 -0.19676216831683
 6 -6.17933271147115 -2.16272242674267  0.08959058045805
 6 -8.46740708540854 -4.91060387928793 -0.87190673767377
 6 -5.34000053775378 -4.31789777507751  0.25962446234623
 8 -5.26473783558356 -5.58534118771877  0.30314634943494
 6 -4.26010942094209 -3.29810274437444  0.60157104910491
 6 -3.41160552475248 -3.66538262286229  1.90785196489649
 8 -3.67952160676068 -3.26450968376838  3.08598231353135
 8 -2.64298564646465 -4.76780493299330  1.73638172617262
 6 -1.93692633113311 -5.39475994529453  2.78926026302630
 6  2.67371114771477 -0.54043330103010 -1.35008038293829
 6  4.03789711211121 -0.38896274567457 -0.69249177787779
 6  5.11444505190519  0.29822314681468 -1.05964586478648
 6  5.25080249684969  1.10171470777078 -2.38546563766377
 6  6.46246270387039  0.31090989788979 -0.29077576377638
 6  7.65402314121412 -0.32487436933693 -1.10067973667367
 6  8.97175625802580 -0.26417615111511 -0.30233282748275
 6  10.23809470247025 -0.59421651995199 -0.90271666606661
 6  10.19804699089909 -2.17936727162716 -1.35879754125413
 6  11.47772888998900 -0.40750164076408  0.08574877357736
 6  12.80294746374637 -0.64995151105111 -0.60858139793979
 6  13.93800948874888 -0.05299206240624  0.15352256525653
 6  15.32806815081508 -0.15885849754975 -0.37846089638964
 6  15.69408351055105 -1.58700148594859 -0.56985426522652
 6  16.42795604960496  0.60744513061306  0.39147833253325
 6  17.79951565586559  0.73722184798480 -0.23351163106311
 6  18.71673707320732  1.28908075487549  0.83153551525153
 6  20.20475815561556  1.43628937353735  0.31865146874687
 6  20.39855008390839  2.22942859085909 -1.02789861126113
 6  21.17474534863486  2.01745611501150  1.40006670827083
 1 -4.09015927442744  3.39776815851585  1.54400892189219
 1 -10.05564931663166  3.93960154405441 -0.69339364196420
 1 -10.37263652545255 -2.32310236493649 -1.41210475797580
 1 -2.67222591329133 -1.23979364306431  1.91252849144915
 1 -2.00262990099010  1.57766625522552  1.29564393089309
 1 -1.83419714301430  1.03940942994299  3.46793700710071
 1 -3.05201998819882  2.12881233783378  3.71997656515652
 1 -3.44823580478048  0.52748711641164  3.68673255775578
 1 -2.27532005890589 -1.57167308770877 -0.47581256725673
 1 -2.25725992819282  0.23576566786679 -0.62606770837084
 1 -0.46118321232123  0.23689161266127  1.00442269416942
 1 -0.44825077877788 -1.40783375877588  1.20795367126713
 1 -4.95016718441844  6.19789496459646  0.37497928012801
 1 -6.05626029632963  6.86796659545955  1.45480016921692
 1 -4.93355658445845  5.54545971737174  2.08890256895690
 1 -9.70157765666567  5.90449338543854  0.53008085258526
 1 -8.96046668706871  8.09824841434143 -0.07059646634663
 1 -7.26275131173117  7.49890045924593 -0.33657812841284
 1 -12.15072048484849  3.01808911421142 -2.25674197259726
 1 -13.16248146164616  1.84817045514551 -1.58306182988299
 1 -12.71291825322532  3.36049913531353 -0.66117761576158
 1 -12.16694922302230 -1.59848224642464 -1.23190339823982
 1 -13.36837284088409 -0.32794660766077 -1.31104846184619
 1 -13.26565703190319 -1.40914215341534 -3.53137613531353
 1 -12.31659183318332 -0.11065979187919 -3.69106668166817
 1 -11.45073842144214 -1.66996994099410 -3.32397151265127
 1 -8.62765366126613 -5.11944479277928 -1.95404298569857
 1 -7.80619432043204 -5.65445555375538 -0.36670089818982
 1 -9.61621378717872 -4.63903069006901 -0.53419167536754
 1 -3.41791192319232 -3.60903248774878 -0.26732338533853
 1 -1.28983007300730 -4.78013639093909  3.28475516251625
 1 -2.45793098049805 -5.67057770017002  3.59643686578658
 1 -1.35558698519852 -6.23614779187919  2.40010671357136
 1  2.61907657875788 -1.57837752765276 -1.74556863316332
 1  2.67203890409041  0.08348126652665 -2.29286130593059
 1  3.99517874217422 -0.73452145834584  0.48791116731673
 1  4.23798473477348  1.24009510581058 -2.85520886318632
 1  5.54270756915692  2.05107949814982 -2.22271662626263
 1  5.85529085188519  0.75071540174017 -3.12950424972497
 1  6.73022604590459  1.30703693139314 -0.02772527482748
 1  6.23137648564856 -0.42518576747675  0.75968697579758
 1  7.57003074517452 -1.32077314901490 -1.59026315501550
 1  7.93467499849985  0.42002887938794 -1.95369551645164
 1  8.97881397859786  0.68748136463646  0.13249721222122
 1  8.83950177297730 -0.86755511091109  0.62179679827983
 1  10.51614332583258 -0.23115834953495 -1.96940077067707
 1  9.34062055845585 -2.40274731903190 -1.97838279947995
 1  11.11729481418142 -2.71594810741074 -1.80599678567857
 1  9.69274674827483 -2.69136075867587 -0.44575666636664
 1  11.34490925312531  0.53411781928193  0.55607757115712
 1  11.31336174587459 -1.27333967206721  0.81289876287629
 1  12.98753448914892 -1.83280014141414 -0.86956529142914
 1  12.74946385238524 -0.23525404640464 -1.68058642244224
 1  13.90233173637364  0.95212846834683  0.39851651215121
 1  14.15792188248825 -0.45270770807081  1.28651382108211
 1  15.43622601470147  0.41379123952395 -1.41246090559056
 1  15.64940694169417 -2.19164589048905  0.29744214661466
 1  14.86992452425243 -1.93694188778878 -1.41834955535554
 1  16.63583164176418 -1.92892682128213 -0.92535464426443
 1  15.77249245894589  1.45066413911391  0.90002342334233
 1  16.49375107710771 -0.20365676137614  1.22943587528753
 1  18.00649984188419 -0.20564752855286 -0.39409541714171
 1  17.69122920412041  1.29748100660066 -1.26479996389639
 1  18.37781646444644  2.26605850545054  1.07536263716372
 1  19.02011828922892  0.51959557085709  1.77226357795780
 1  20.52696276297630  0.44721115691569  0.01373912431243
 1  19.90174700800080  3.17466645154515 -0.81387165666567
 1  21.42302841674167  2.27278315621562 -1.52846410041004
 1  19.81309214241424  1.56057746004600 -1.66043646694669
 1  21.14857487278728  1.44695399919992  2.25154459605961
 1  22.09170381088109  1.95837436863686  0.87631189738974
 1  20.89682221482148  3.07406108230823  1.65940187138714

