%nproc=4
%Mem=2GB
# td=(NStates=1) CAM-B3LYP/6-31G(d,p) 

TD

0 1
12 -7.19216088538854  0.60839908060806  0.12410045864586
 6 -4.83875275637564 -1.94921703300330  0.43333896879688
 6 -4.81228053435344  2.77060138743874  1.24423788098810
 6 -9.26261084988499  3.05504790419042 -0.44493582658266
 6 -9.48690971857186 -1.69081925692569 -0.91034914991499
 7 -5.11529431103110  0.35107636813681  0.83121064146415
 6 -4.40630823612361 -0.69236985738574  0.80698260106011
 6 -2.93770473167317 -0.47997326942694  1.29713515471547
 6 -3.14165445464546  0.97832896539654  1.86036884328433
 6 -4.33930201690169  1.49497987838784  1.20783704490449
 6 -3.06571436243624  1.14104059135914  3.45263878997900
 6 -1.93559784068407 -0.56616062616262  0.15374470027003
 6 -0.48097635163516 -0.37639587098710  0.48343692659266
 6  0.42931230963096 -0.65934936703670 -0.56662831463146
 8  0.21923247294729 -0.97361876567657 -1.79468874917492
 8  1.72720974597460 -0.48462336913691 -0.19386360646065
 7 -7.13604121262126  2.62098350565057  0.31344650145014
 6 -6.06432356335634  3.30894184808481  0.82567055105511
 6 -6.40176816651665  4.70771140154015  0.88709647414741
 6 -7.69703029842984  4.88966885358536  0.39338624562456
 6 -8.08109866306631  3.50244053535354 -0.03782344314431
 6 -5.47110289148915  5.78305939723972  1.36826335153515
 6 -8.50360957335734  6.07465253325333  0.11004102600260
 6 -8.20428962676267  7.29446553085309  0.05447118481848
 7 -9.01190622632263  0.65878235653565 -0.49339104440444
 6 -9.85341700070007  1.84933561616162 -0.66675179937994
 6 -11.21629637253725  1.48099909030903 -1.06287103670367
 6 -11.17766628732873  0.10679455675568 -1.24340360656066
 6 -9.85717560126013 -0.36807529562956 -0.82712201510151
 6 -12.24438268036804  2.46563884478448 -1.18174870577058
 6 -12.27145719141914 -0.77611867406741 -1.69902507970797
 6 -12.28159449144914 -1.04517840304030 -3.20714882028203
 7 -7.24205045714571 -1.40030939253925 -0.15425854455446
 6 -8.23788901120112 -2.17163310281028 -0.50056786268627
 6 -7.85716338383838 -3.61520570347035 -0.58955738473847
 6 -6.51682720472047 -3.56617093259326 -0.23025551765176
 6 -6.16547132533253 -2.17096325082508  0.08882050345034
 6 -8.67520786548655 -4.79361218011801 -0.92638218521852
 6 -5.29410594829483 -4.40793677897790  0.12011051095109
 8 -5.05735709750975 -5.62892554615462  0.22388842364236
 6 -4.19699310931093 -3.34959789388939  0.48616950895089
 6 -3.55990035423542 -3.74413049764976  1.90536171587159
 8 -3.92490614521452 -3.29032226502650  2.93884760006001
 8 -2.60328167606761 -4.71921007350735  1.76345443344334
 6 -2.09350198869887 -5.22260272957296  2.98928026502650
 6  2.80198397499750 -0.59849910761076 -1.14496987188719
 6  4.08065138753875 -0.21859570897090 -0.56224875357536
 6  5.07301090849085  0.41595491999200 -1.12936283648365
 6  4.94622203880388  1.04381891819182 -2.56839393049305
 6  6.39821627922792  0.63058186508651 -0.39348603480348
 6  7.61002874177418 -0.18701058295830 -1.03207287598760
 6  8.93026210861086 -0.10616034953495 -0.22791538573857
 6  10.14704559755976 -0.59388648694869 -0.93528992339234
 6  10.09258644484449 -2.03554288918892 -1.25807746924692
 6  11.31799291639164 -0.18420931153115 -0.01091089238924
 6  12.66668383738374 -0.45573208910891 -0.71143168296830
 6  13.82731841964196 -0.02572933613361  0.13417063006301
 6  15.30313565756576 -0.13001561326133 -0.53671672197220
 6  15.69436353855386 -1.55528831463146 -0.92043932373237
 6  16.37106036003600  0.55939032513251  0.42216140084008
 6  17.81223692799280  0.45665379117912 -0.04373265316532
 6  18.81725712521252  1.31227307410741  0.83484584628463
 6  20.22667034683468  1.34710045464546  0.28708831243124
 6  20.33676390529053  1.99382503050305 -1.06373219461946
 6  21.27870574467447  1.90870523992399  1.36437313891389
 1 -4.32565282378238  3.64074245594559  1.76468098909891
 1 -10.06584033573357  3.96729431333133 -0.50481478407841
 1 -10.37625688748875 -2.37859791449145 -0.98292183968397
 1 -2.81482017271727 -1.00717038073807  2.20732797139714
 1 -2.23770340834083  1.69861835043504  1.58951331783178
 1 -2.07544126742674  0.63955944494449  3.80672088548855
 1 -3.14263905010501  2.24958441504150  3.70690525802580
 1 -3.84685566676668  0.71960632833283  3.87515139963996
 1 -2.02447497439744 -1.48819473987399 -0.27259224522452
 1 -2.22282648484848  0.35279737103710 -0.67929303090309
 1 -0.18770586458646  0.47445536903690  0.80235248714872
 1 -0.09042499619962 -0.96166914231423  1.41738461436144
 1 -4.57465963366337  5.94963013811381  0.62817459965997
 1 -5.83120779107911  6.73006280508051  1.71559624882488
 1 -4.93881711051105  5.38406357775778  2.22944662336234
 1 -9.44967246614661  6.02736567266727  0.28087593209321
 1 -9.05962660306031  7.98250684018402 -0.17283669036904
 1 -7.10707574417442  7.69355992519252  0.10260578997900
 1 -12.30863627642764  3.12177948324833 -2.03431973037304
 1 -13.16269148264826  1.93742938103810 -1.58688221192119
 1 -12.25835279667967  3.03913699909991 -0.08305980398040
 1 -12.08283081118112 -1.74877727592759 -1.00361056895690
 1 -13.17314331793179 -0.38418223122312 -1.10511786878688
 1 -13.01197166336634 -1.73578481768177 -3.38515151285129
 1 -12.35051522552255 -0.17941666756676 -3.96590416541654
 1 -11.46845019261926 -1.66352929692969 -3.53287240274027
 1 -8.94017491339134 -4.72777562586259 -1.83123070447045
 1 -8.01399510051005 -5.69794990319032 -1.18090231833183
 1 -9.48510067586759 -4.96238302530253 -0.28216647284728
 1 -3.30338047004700 -3.44095568006801 -0.15379203220322
 1 -1.46793788378838 -4.48919729702970  3.29360604760476
 1 -2.77374256165617 -5.60341098349835  3.73585080718072
 1 -1.45714714121412 -6.06378055515552  2.66555325822582
 1  2.79791446254625 -1.69363905380538 -1.25948002430243
 1  2.46886858705871  0.07085000340034 -2.03806582638264
 1  4.06591581588159 -0.63070107630763  0.34431680788079
 1  3.87236817311731  0.96309740604060 -2.90910425272527
 1  5.30490378877888  2.02358674887489 -2.31762611721172
 1  5.57256257905791  0.58977930813081 -3.41209250855086
 1  6.54479750305031  1.71261748944895 -0.23657615991599
 1  6.25407875587559  0.33975072617262  0.69770077717772
 1  7.51868561066107 -1.20185125682568 -1.05826995569557
 1  7.65994752575258  0.28405528202820 -2.08950909780978
 1  8.98552464966497  0.90144276077608  0.05962992549255
 1  8.80495831863186 -0.58378673407341  0.72465708430843
 1  10.32031374287429 -0.03514874857486 -1.79071290189019
 1  9.22537903430343 -2.23320036433643 -2.06771173237324
 1  11.11654473917392 -2.37822433503350 -1.48364455045505
 1  9.83012048564857 -2.63199482208221 -0.28939102980298
 1  11.35350011221122  0.77333174067407  0.27886985038504
 1  11.53917432713271 -0.84823716181618  0.98172564556456
 1  12.59524526022602 -1.53400026142614 -0.81712004690469
 1  12.86787569356936  0.10947042604260 -1.67455581938194
 1  13.64865636883688  1.00702395789579  0.48670533103310
 1  13.81406749704970 -0.68682111941194  1.16297146684668
 1  15.28479087118712  0.40268012841284 -1.35411507100710
 1  16.14176617761776 -1.95379210511051  0.03700610301030
 1  14.83061059285929 -2.21637983158316 -1.32726044644464
 1  16.55186324492449 -1.71970589918992 -1.66208831763176
 1  16.20357556725672  1.64407348004800  0.53126654765477
 1  16.17283898589859  0.23031663596360  1.55025795749575
 1  18.15266445834584 -0.67520448424842  0.03359735213521
 1  17.73671375257526  0.83834509300930 -1.27739122302230
 1  18.33272195499550  2.34348624822482  1.00927602850285
 1  18.81098737613761  0.80097370867087  1.79012536413641
 1  20.81725179187919  0.33179961576158  0.36968471887189
 1  19.86531336463646  2.97088607350735 -0.80160042954295
 1  21.38036415031503  1.98918479637964 -1.52927418141814
 1  19.81203203640364  1.43721512381238 -1.79110953425343
 1  21.40225024032403  1.39283858765877  2.36779622122212
 1  22.26505114561456  1.60990952215222  0.99327359355936
 1  21.30035256785679  3.06529020522052  1.44254018521852

