%nproc=4
%Mem=2GB
# td=(NStates=1) CAM-B3LYP/6-31G(d,p) 

TD

0 1
12 -7.24636630593059  0.65328356905691  0.10301835043504
 6 -4.89595847694769 -1.94806691799180  0.44001963686369
 6 -4.79412871917192  2.76599092639264  1.11177463466347
 6 -9.47562215101510  3.02849524892489 -0.24482581558156
 6 -9.60381140874087 -1.64207438243824 -0.91239935493549
 7 -5.19642242384238  0.40185144564456  0.67807532793279
 6 -4.36646425172517 -0.73951457185719  0.74151605440544
 6 -2.92982394359436 -0.38795406750675  1.16857229842984
 6 -3.05833612281228  1.01966309880988  1.60325313171317
 6 -4.44218230493049  1.41957233763376  1.16211247244724
 6 -2.86261405240524  1.30656714401440  3.16725025112511
 6 -1.87747202810281 -0.61003501360136  0.04052337813781
 6 -0.42394064806481 -0.50916914831483  0.50201878477848
 6  0.54467384578458 -0.82613604570457 -0.57172882468247
 8  0.21334188388839 -1.09466086988699 -1.79030831113111
 8  1.81238826382638 -0.69058396519652 -0.18731295139514
 7 -7.17146475497550  2.63780518781878  0.30973613041304
 6 -6.08338546954695  3.33371432533253  0.74548253225323
 6 -6.42048003770377  4.69435006540654  0.84945270977098
 6 -7.76200679607961  4.80531041774177  0.60674758175818
 6 -8.19665021822182  3.49226951825182  0.23661400060006
 6 -5.49823560476048  5.84009510081008  1.23250977617762
 6 -8.63894310671067  6.07460252825283  0.41667168906891
 6 -8.23027222502250  7.32250833513351  0.06870260796080
 7 -9.22550758645865  0.67831430973097 -0.46769847514751
 6 -9.86824848384838  1.81153183578358 -0.48790391459146
 6 -11.23103784668467  1.51170216061606 -1.07098184778478
 6 -11.38001652235224  0.15154903220322 -1.18693795999600
 6 -9.97754763846385 -0.40008849694969 -0.85077438033803
 6 -12.26576481858186  2.46845912681268 -1.27205773667367
 6 -12.59621966766677 -0.60832189438944 -1.68346352355236
 6 -12.47428376037604 -1.12933681888189 -3.11892999839984
 7 -7.29381563366337 -1.34835419701970 -0.27284040274027
 6 -8.27046226852685 -2.16085202470247 -0.63916172207221
 6 -7.89441710921092 -3.54651883478348 -0.49665809480948
 6 -6.50311583358336 -3.47156147164716 -0.14919741184118
 6 -6.18441321952195 -2.17488364286429  0.00163178457846
 6 -8.65307565226523 -4.78888170707071 -0.80718026502650
 6 -5.34965150285028 -4.27260324562456  0.22088058795880
 8 -5.28821018281828 -5.57677033063306  0.35197123192319
 6 -4.16028943894389 -3.20863379747975  0.54460535253525
 6 -3.56796116031603 -3.63602968756876  1.84421560126013
 8 -3.78537219181918 -3.06641987478748  2.93237695299530
 8 -2.69503085098510 -4.66185433793379  1.65244333233323
 6 -2.12749538803880 -5.20321079037904  2.88168950595060
 6  2.85144892149215 -0.86032529022902 -1.25803117801780
 6  4.14794811721172 -0.55577942734273 -0.60617314601460
 6  5.17971157855786  0.21819514401440 -1.09581948214821
 6  5.23201061766177  1.01937647394739 -2.48997608870887
 6  6.44322077967797  0.26378518541854 -0.35979266546655
 6  7.70729846874687 -0.19988187008701 -1.06674634333433
 6  8.91980106250625 -0.24037377087709 -0.11497409160916
 6  10.29224011701170 -0.54945204350435 -0.71652804720472
 6  10.24445163136314 -2.00439977487749 -1.34449611111111
 6  11.56022713981398 -0.33664455505551  0.06166636533653
 6  12.93432060106011 -0.47945446134613 -0.68873941374137
 6  14.04784047184718 -0.15710247344734  0.30258747174717
 6  15.32486783078308 -0.09980259195920 -0.39743279357936
 6  15.80139424162416 -1.54799758555856 -0.87840512031203
 6  16.49552280628063  0.45598998509851  0.47198638333833
 6  17.79063476777678  0.71980010581058 -0.26265454535454
 6  18.83565896539654  1.20850269706971  0.83048541024102
 6  20.29033671347135  1.52577832243224  0.25269487308731
 6  20.39490971987199  2.45951159915992 -1.00509633103310
 6  21.21510938503851  1.90159452885289  1.43022972457246
 1 -4.01894215271527  3.54024240594059  1.53291781278128
 1 -10.11396514821482  3.81979956385639 -0.09055335793579
 1 -10.29437869966997 -2.53586364106411 -1.27867141464146
 1 -2.68491718241824 -0.88345800950095  1.98967620622062
 1 -2.28449808780878  1.58014650325032  0.99078344484448
 1 -1.90579430273027  1.09073456245625  3.59473968736874
 1 -3.18985377157716  2.26293575017502  3.48420298779878
 1 -3.62166314751475  0.52679704740474  3.68999288378838
 1 -2.17210973787379 -1.55860178057806 -0.49387437343734
 1 -2.13956815901590 -0.04374228292829 -0.77136223782378
 1 -0.21269836383638  0.61563948744874  0.93114536643664
 1 -0.18271422512251 -1.35365834123412  1.30812368826883
 1 -5.09301146884688  6.12789796489649  0.35044682688269
 1 -6.12858752905291  6.69453925272527  1.77597228642864
 1 -4.51333456225622  5.49039421082108  1.72453613231323
 1 -9.79818731763176  5.91191412751275  0.41904974947495
 1 -8.88752939333933  8.08531712121212  0.07800839413941
 1 -7.11832686928693  7.58202877207721 -0.23587805840584
 1 -12.19737515031503  3.04256156145615 -2.20173647204720
 1 -13.12694790829083  1.71550718881888 -1.31813533723372
 1 -12.43286024742474  3.16738982438244 -0.33807530553055
 1 -12.76544907300730 -1.49685208340834 -1.11382159005901
 1 -13.47820382398240 -0.05090890389039 -1.55946330333033
 1 -13.24782524872487 -2.10463170237024 -3.29881287898790
 1 -12.72284245824582 -0.23829255515552 -3.93334090909091
 1 -11.53939728732873 -1.66266921092109 -3.10499961546155
 1 -8.85784668056806 -4.70124297259726 -1.95318289968997
 1 -8.03217691869187 -5.60938104630463 -0.52133636173617
 1 -9.58440060586059 -4.98301508850885 -0.25304356055606
 1 -3.48597872987299 -3.54006559105911 -0.31145779877988
 1 -1.38926001600160 -4.34459283658366  3.26926361336134
 1 -2.95773096049605 -5.50575121752175  3.50234745684568
 1 -1.58021944844484 -6.08208238533853  2.68811551445144
 1  2.82310698179818 -1.81580127002700 -1.61597567386739
 1  2.55576727692769 -0.13018009960996 -1.82446446624662
 1  4.36614583888389 -0.85397340354035  0.36215859205921
 1  4.20593152945295  1.08064916121612 -2.93980732303230
 1  5.69146244464446  1.85331972217222 -2.03342769736974
 1  5.84894021682168  0.38588891909191 -3.15188648794880
 1  6.31601462476248  1.34032025972597 -0.00650315261526
 1  6.36569991799180 -0.32695594449445  0.63643465056506
 1  7.70415415751575 -1.13477454915492 -1.37850197889789
 1  8.15033656465647  0.41354823132313 -2.09443959085909
 1  9.05804190139014  0.76926954345435  0.18083204570457
 1  8.54131195399540 -0.94624297969797  0.64713933253325
 1  10.37370908240824  0.13198796509651 -1.49169299989999
 1  9.42084858125813 -2.01336838113811 -2.04253921512151
 1  11.13193627832783 -2.04436094869487 -2.04245043104310
 1  10.26446391999200 -2.63949557215722 -0.46459855055506
 1  11.44950971317132  0.79640404790479  0.38967093049305
 1  11.78722913261326 -1.15009734783478  0.89842731573157
 1  12.82204794049405 -1.42485934733473 -1.18264659955996
 1  12.70451935793579  0.11703118211821 -1.60382874667467
 1  13.81052255545555  0.97657091259126  0.73072973347335
 1  14.17153324362436 -0.81759419671967  1.03625879557956
 1  15.23211560366037  0.63206306670667 -1.18333799329933
 1  15.86155815681568 -2.29634636053605 -0.04845244284428
 1  15.10757828962896 -1.91221941554155 -1.53013073347335
 1  16.52095015361536 -1.57328125672567 -1.49767187598760
 1  16.43448865856585  1.61742081478148  0.82527594859486
 1  16.46390809280928 -0.16923331903190  1.45595852755276
 1  18.03422261416142 -0.32092905670567 -0.70969697729773
 1  17.63159324052405  1.36506776527653 -0.98175165906591
 1  18.66723540634063  2.26384828442844  1.18945404630463
 1  18.94725100250025  0.39476308760876  1.74173052465247
 1  20.64124419111911  0.40739717551755 -0.28991124072407
 1  19.96734356765677  3.34562354725473 -0.78631890139014
 1  21.46350246414642  2.46692257015702 -1.27052830683068
 1  19.85002583578358  1.90047144944494 -2.01037146044604
 1  21.07279729502950  1.34343364716472  2.18796823842384
 1  22.21960660116012  1.92353088428843  0.92126639283928
 1  20.88648118071807  3.01761543774377  1.50224615581558

