%nproc=4
%Mem=2GB
# td=(NStates=1) CAM-B3LYP/6-31G(d,p) 

TD

0 1
12 -7.20861253055306  0.57868610931093  0.10401845044504
 6 -4.87544642574257 -2.05108722002200  0.35995163006301
 6 -4.71406071237124  2.83465779307931  1.23928738593859
 6 -9.42870745954595  3.06713911331133 -0.23763509650965
 6 -9.62202322992299 -1.71494166916692 -0.83228134313431
 7 -5.07270005160516  0.45978723922392  0.74410193059306
 6 -4.25532313761376 -0.75060568096810  0.73532543534353
 6 -2.85339630083008 -0.42534780688069  1.20078551975198
 6 -3.00468075727573  1.05186631913191  1.67863066946695
 6 -4.35701378807881  1.53895427582758  1.12155841704170
 6 -2.90991878287829  1.24259074637464  3.15491901800180
 6 -1.88082236313631 -0.59417342744274  0.06616594239424
 6 -0.46496475047505 -0.49726795819582  0.43707229012901
 6  0.50415979437944 -0.71694512661266 -0.62504415621562
 8  0.20964151385139 -1.03588499229923 -1.75331461176118
 8  1.78870589558956 -0.51871677847785 -0.14249846994699
 7 -7.10102771127113  2.64844625192519  0.40149530633063
 6 -6.08515564656466  3.37339829372937  0.80789877387739
 6 -6.47855584528453  4.72847347774777  0.73180094459446
 6 -7.81912250765077  4.83610349704970  0.36974388138814
 6 -8.16794734793479  3.50051034233423  0.14413475267527
 6 -5.76407218841884  5.79208029932993  1.34533105830583
 6 -8.62021123352335  5.87369243724372  0.25800582248225
 6 -8.27219641744174  7.22909899419942  0.09816555425543
 7 -9.04761979767977  0.61326780508051 -0.55691739703970
 6 -9.84282594159416  1.74767545014501 -0.54548967316732
 6 -11.18203294619462  1.52600359075908 -1.02331708130813
 6 -11.25276379707971  0.12564644194419 -1.19855912211221
 6 -10.02373225692569 -0.35582407050705 -0.83235253815382
 6 -12.34943318541854  2.43749603050305 -1.53064359525953
 6 -12.34471451715171 -0.77698876107611 -1.60917609480948
 6 -12.15447177917792 -1.02720660586059 -3.20850895629563
 7 -7.25076132823282 -1.34144350595059 -0.16476959565957
 6 -8.34669989228923 -2.13285922542254 -0.52390019591959
 6 -7.90932860036004 -3.55638982188219 -0.48498692769277
 6 -6.63073859585959 -3.51728604410441 -0.11932442454245
 6 -6.22797757595760 -2.12027818231823  0.03178479987999
 6 -8.76497684238424 -4.79605242414241 -0.59348889588959
 6 -5.41072761046105 -4.37471345664567  0.22378087798780
 8 -5.25954731653165 -5.62247490109011  0.26573260806081
 6 -4.24341775177518 -3.29052198629863  0.42809370137014
 6 -3.48773313751375 -3.70869695429543  1.83069424912491
 8 -3.80830448504850 -3.19731296409641  2.92924663996400
 8 -2.61800314821482 -4.73809196169617  1.75903399139914
 6 -2.14115675417542 -5.29175964526453  2.89588092509251
 6  2.81369514611461 -0.70947020472047 -1.30251562646265
 6  4.12153547594759 -0.48919276867687 -0.52861539023902
 6  5.16709031643164  0.33616694119412 -0.95303520372037
 6  5.02285970257026  1.14050858715872 -2.22288938003800
 6  6.49006546414641  0.40246905380538 -0.23356004220422
 6  7.70490822972297 -0.03674555645565 -1.04816448514851
 6  8.92089117151715 -0.01695142864286 -0.18223081728173
 6  10.16546743974397 -0.45882298059806 -0.93996039043904
 6  10.16868405460546 -1.90027936283628 -1.41822348384838
 6  11.45645676277628 -0.20354124472447 -0.00845064636464
 6  12.80595776477648 -0.27876439233923 -0.72578311811181
 6  13.97998368616862 -0.06785354855486  0.18156536953695
 6  15.36814215821582 -0.09185179687969 -0.45204825512551
 6  15.68287238943894 -1.53413619941994 -0.99483676347635
 6  16.53232648664866  0.36202058815882  0.49021820652065
 6  17.87431313561356  0.52123024882488 -0.10577885778578
 6  18.87488288778878  1.30384223102310  0.84926728842884
 6  20.29926760656065  1.26661240584058  0.27534713831383
 6  20.49400962986298  1.95394104210421 -1.07053287468747
 6  21.16047392149215  1.76227059645965  1.40566726832683
 1 -4.09208946744674  3.62183056475648  1.56508102910291
 1 -10.07194094579458  3.80263784768477 -0.60510481308131
 1 -10.39724898669867 -2.49653970867087 -1.07120066756676
 1 -2.73431212191219 -0.90791045474548  2.15545278387839
 1 -2.31879151715172  1.65696418501850  1.24646901340134
 1 -1.98660238353835  0.85673116211621  3.70146035943594
 1 -3.18095288148815  2.41225068166817  3.35065963346335
 1 -3.80879186038604  0.59974434213421  3.61662554705471
 1 -1.97685021192119 -1.56253217361736 -0.55761074707471
 1 -2.22286648884888  0.14199629092909 -0.53153825542554
 1 -0.10953804780478  0.41800972447245  0.83432568446845
 1 -0.18109406310631 -1.12902587798780  1.26022889878988
 1 -5.01819398709871  6.34465964106411  0.65340712291229
 1 -6.47609227952795  6.53526332513251  1.74569925912591
 1 -5.36043927272727  5.41739691109111  2.30227390609061
 1 -9.70640813971397  5.79284222032203  0.23193103760376
 1 -8.91066170657066  8.17807639713971  0.01223181648165
 1 -7.21917695429543  7.44310487968797  0.12999852925293
 1 -12.01469688248825  3.19009631493149 -2.19191548994899
 1 -13.23775898939894  1.82128776687669 -1.86223974767477
 1 -12.91946890829083  3.07743082848285 -0.66850834883488
 1 -12.51283381148115 -1.72575497369737 -1.15390559845985
 1 -13.32312831643164 -0.36114992799280 -1.36731408840884
 1 -12.92995346154615 -1.62715395459546 -3.62380537823782
 1 -12.07330750475048 -0.12784151005101 -3.77157473247325
 1 -11.05429877747775 -1.60655359935994 -3.21540065556556
 1 -9.20771166706671 -5.02198504680468 -1.63212079347935
 1 -8.02521622262226 -5.65811591979198 -0.29096332443244
 1 -9.65514768056806 -4.83398018501850  0.16760850465047
 1 -3.48096822882288 -3.31650323482348 -0.38792544554455
 1 -1.18112920292029 -4.63987236453645  3.24830151715171
 1 -2.94133932133213 -5.52794343674367  3.73535075717572
 1 -1.64850627712771 -6.19958413551355  2.72044874777478
 1  2.76104077517752 -1.64022371227123 -1.74198827512751
 1  2.49955165536554  0.15572849124913 -1.74427644744474
 1  4.17940716501650 -0.93837184338434  0.34104648084808
 1  3.97307824412441  1.04629572587259 -2.69141248354835
 1  5.35797909630963  2.30415480568057 -2.22974732933293
 1  5.71056637943794  0.86862719291929 -3.04607590689069
 1  6.77551057435744  1.32308853655366 -0.03696619891989
 1  6.62574592259226 -0.28397164606461  0.68378938603860
 1  7.53738748084808 -1.03664473617362 -1.61091522022202
 1  7.96074760576058  0.73228010451045 -1.71686183308331
 1  9.20718681588159  0.81479409590959  0.35799976247625
 1  8.64904272707271 -0.70498885428543  0.53241786038604
 1  10.01791350285029 -0.00068530223022 -1.98433226382638
 1  9.45556205260526 -1.98783582788279 -2.28393335453545
 1  11.13791687638764 -2.10913742634263 -1.70401658765877
 1  10.06570404400440 -2.75138676127613 -0.80556264696470
 1  11.40042480468047  0.92506691419142  0.41702366576658
 1  11.48870928062806 -0.64258659675968  0.80788826182618
 1  12.90845658135814 -1.34400126152615 -1.03223155805581
 1  12.79344825082508  0.46738621762176 -1.52267063086309
 1  13.86433793699370  0.89741299679968  0.80882754325432
 1  13.96167225752575 -0.87679011631163  0.89328449814982
 1  15.42695508760876  0.56545640604060 -1.18688834833483
 1  15.82051405240524 -2.11234796069607 -0.23122071967197
 1  14.94285181698170 -1.80456865046505 -1.68099581998200
 1  16.48092615121512 -1.59384331293129 -1.81584369316932
 1  16.26527173687369  1.23586265896590  0.94018743974397
 1  16.67360906290629 -0.26102249794980  1.56588952065206
 1  18.17825701760176 -0.55982294609461 -0.31550755835584
 1  17.91148122932293  1.05547680618062 -1.11715519941994
 1  18.39397808060806  2.33992589218922  1.08533363426343
 1  18.71647792519252  0.94909852115212  1.85153150475047
 1  20.46655672237224  0.19244568036804  0.10072782318232
 1  20.29250608390839  3.00438942384238 -0.83937420692069
 1  21.57065317921792  2.07197307520752 -1.27921917591759
 1  19.94283511671167  1.65089649194920 -2.06385680898090
 1  20.97004702000200  1.24891419521952  2.34390383198320
 1  22.05238987948795  1.68592712391239  1.16624089028903
 1  20.94391692429243  2.97522119831983  1.52643857505751

