%nproc=4
%Mem=2GB
# td=(NStates=1) CAM-B3LYP/6-31G(d,p) 

TD

0 1
12 -7.13378504780478  0.65417365806581  0.14076212481248
 6 -4.78856773787379 -1.93424553585359  0.53886952185219
 6 -4.76805611191119  2.85980030733073  1.16873033023302
 6 -9.42004659345934  3.09541194059406 -0.40320165316532
 6 -9.55319634723472 -1.75057523252325 -0.83863197819782
 7 -5.12513529512951  0.49811107160716  0.83122064246425
 6 -4.23850145544554 -0.68403902430243  0.86462836563656
 6 -2.98410937213721 -0.35968124022402  1.28935437663766
 6 -2.98657894709471  1.03937507000700  1.78649145554555
 6 -4.36604469116912  1.50901128152815  1.24421068226823
 6 -3.09275706670667  1.19823631093109  3.30182370847085
 6 -1.96362064296430 -0.60885489558956  0.12875220102010
 6 -0.52365061906191 -0.46872510391039  0.56927551045105
 6  0.40181956035604 -0.58014144624462 -0.63051470327033
 8  0.10336088578858 -0.86760816461646 -1.74602388268827
 8  1.71939896489649 -0.39041394819482 -0.19804402450245
 7 -7.07570517901790  2.61719312661266  0.51045620242024
 6 -6.03099023002300  3.41849280318032  0.88760674467447
 6 -6.37708569826983  4.80909153955395  0.83850161466147
 6 -7.76171676707671  4.83855374207421  0.45676258325833
 6 -8.12893344654465  3.50967125842584  0.18301864106411
 6 -5.51049683088309  5.97356844814481  1.33930045524552
 6 -8.59735894829483  5.96136120412041  0.33705372727273
 6 -8.19432863066307  7.20669675397540 -0.03017728002800
 7 -9.09196423212321  0.67703418171817 -0.47627933323332
 6 -9.86213787278728  1.77229791239124 -0.62415753995400
 6 -11.15227997089709  1.43262425282528 -1.09113386298630
 6 -11.18351687238724  0.00920479777978 -1.20559982618262
 6 -9.86744662836284 -0.37794628272827 -0.87293659655966
 6 -12.25399364146415  2.28795107600760 -1.54057458835884
 6 -12.27892793849385 -0.87617868006801 -1.63839901710171
 6 -12.10457678967897 -1.22126601180118 -3.20953905930593
 7 -7.20252650475047 -1.43929329092909 -0.15814893359336
 6 -8.29666488878888 -2.20473641314131 -0.58620642654265
 6 -7.76256392389239 -3.54201838473847 -0.64983341234123
 6 -6.47917343934393 -3.44670898639864 -0.19993248534854
 6 -6.11750652885288 -2.14305045954595  0.06913853525353
 6 -8.57128747344734 -4.80933375227523 -1.07846739373937
 6 -5.29690622832283 -4.29703568886889  0.15470397029703
 8 -5.18376973877388 -5.52136479007901  0.09327536233623
 6 -4.14799820982098 -3.30661359545955  0.57562845484548
 6 -3.60038440264026 -3.72376846144614  1.90273145284528
 8 -3.79421307590759 -3.12959619241924  2.93934765006501
 8 -2.80399174707471 -4.78436658915892  1.81089917791779
 6 -2.23624626312631 -5.37952842214221  3.11000233723372
 6  2.69826360296030 -0.54442370007001 -1.15064043894389
 6  4.07556087848785 -0.32955680508051 -0.49194172287229
 6  5.13903751115112  0.35621894639464 -1.03908380858086
 6  5.11552896949695  1.07939247554755 -2.33075016611661
 6  6.42059851745174  0.42507131403140 -0.33287997419742
 6  7.62113985288529 -0.20162204410441 -1.10837050575058
 6  8.91177025942594 -0.18429816331633 -0.22913550775078
 6  10.24019491249125 -0.61543864216422 -0.96382277667767
 6  10.15070225642564 -2.08908824372437 -1.41945360686069
 6  11.44152526962696 -0.43182407300730  0.02221241994199
 6  12.80832800180018 -0.52597911381138 -0.67306784658466
 6  13.98913460126013 -0.09872663586359  0.24274148714871
 6  15.25121046504650 -0.16627923962396 -0.53087613791379
 6  15.73540764296430 -1.60455324112411 -0.92110939073907
 6  16.36765001900190  0.40832521862186  0.43794297899790
 6  17.82650835513551  0.58206633243324 -0.23809208910891
 6  18.76493189268927  1.27071891869187  0.85486784848485
 6  20.18432611241124  1.46897264186419  0.22138174177418
 6  20.27036726562656  2.21354700270027 -1.12810863226323
 6  21.06546442054206  1.92664703410341  1.33508020962096
 1 -4.13627388588859  3.43652203390339  1.59608412941294
 1 -10.06952070377038  3.88825640954096 -0.68505280788079
 1 -10.20672993479348 -2.39675973067307 -1.35799934743474
 1 -2.66209490019002 -1.06241590529053  2.13570080868087
 1 -2.14234387238724  1.53214170277028  1.46274064056406
 1 -1.92720644394439  0.96679216821682  3.69331954535454
 1 -3.32069685588559  2.32331178777878  3.53864843234323
 1 -3.77373835503550  0.61288565626563  3.79054293879388
 1 -2.06751927882788 -1.61516743714371 -0.50944593059306
 1 -2.19688389058906  0.17128922022202 -0.74228933053305
 1 -0.27977507150715  0.61657958145815  0.96659891179118
 1 -0.28946490019002 -1.20291326672667  1.34922779867987
 1 -4.61022319001900  6.50475565066507  0.61564334653465
 1 -6.01611628192819  7.06051585038504  1.49563425262526
 1 -4.89700292909291  5.79038420982098  2.31375505420542
 1 -9.67020451935193  5.98195113121312  0.65570341484148
 1 -8.95842648304830  8.00802939243924  0.05238583188319
 1 -7.24411944854485  7.59209977917792 -0.30450492109211
 1 -12.11127654045405  2.80034734003400 -2.52636893529353
 1 -13.20183539703970  1.53919955805581 -1.55637916161616
 1 -12.44070103150315  2.96237932333233 -0.60262176017602
 1 -12.55121764986499 -1.80754315251525 -1.13651385928593
 1 -13.34928093169317 -0.28990280328033 -1.64778213521352
 1 -13.09571003720372 -1.73622486168617 -3.39819281698170
 1 -11.90790096409641 -0.28130685658566 -3.75227280228023
 1 -11.25408875647565 -1.72616556055606 -3.40290940644064
 1 -8.91089198509851 -4.75264811311131 -2.16598417981798
 1 -7.96677037803780 -5.56758686688669 -0.99803403150315
 1 -9.45481764756476 -4.96612339933993 -0.35757401360136
 1 -3.50332046404640 -3.65751733623362 -0.27791444444444
 1 -1.70191128112811 -4.52170054735473  3.55896258325833
 1 -3.04568975637564 -5.80704134653465  3.63289051115111
 1 -1.34016544304430 -6.07999217631763  2.69511621452145
 1  2.67137180828083 -1.65813550345034 -1.53414749104910
 1  2.54109580978098  0.24635755415542 -1.96848886868687
 1  4.17522674697470 -0.75229323552355  0.61574395059506
 1  3.99456039233923  1.14960605690569 -2.53774711701170
 1  5.21416471487149  2.13800819101910 -2.08281263586359
 1  5.68947427022702  0.41779210941094 -3.09790108940894
 1  6.65204822812281  1.46169239693969 -0.16193869616962
 1  6.33781712971297 -0.14820806970697  0.64091509860986
 1  7.14406814891489 -1.27943901560156 -1.32403653235324
 1  7.81963349434943  0.59120599709971 -1.98409855675568
 1  9.01863796099610  0.76301891839184  0.14264822732273
 1  8.82503032583258 -0.77000535593559  0.67522214081408
 1  10.47253896539654 -0.19180441414141 -1.91317514811481
 1  9.44473096949695 -2.21477852215222 -2.09933489468947
 1  11.21050413511351 -2.51287780038004 -1.88074426042604
 1  9.74790226382638 -2.80258188078808 -0.63516560726073
 1  11.35699046124612  0.62973738123812  0.53848581198120
 1  11.32292270197020 -1.27144948304830  0.82090956395640
 1  12.81885762146215 -1.59007586898690 -0.84189252415242
 1  12.84663356935694 -0.03521404240424 -1.60172853665367
 1  13.78666016921692  0.75400865636564  0.56469312981298
 1  14.04180027032703 -0.75392783008301  1.03789895959596
 1  15.23041543364337  0.43756361676168 -1.45869552905291
 1  15.78133013401340 -2.18117484338434  0.02911531393139
 1  14.79457698949895 -2.02423061666167 -1.29409713011301
 1  16.71776983558356 -1.68272220082008 -1.50826293509351
 1  16.05131034073407  1.41108018071807  0.77970139113911
 1  16.30424212621262 -0.09695609130913  1.28167109880988
 1  18.21150034193419 -0.33624058785879 -0.47423343094309
 1  17.78930901210121  1.37706896539654 -0.93611709560956
 1  18.18857754055405  2.27412931253125  1.26213131403140
 1  18.72585886328633  0.68138174947495  1.85450180178018
 1  20.40973103980398  0.39158559435944  0.02889063946395
 1  20.25397223052305  3.22440142504250 -0.84683495299530
 1  21.34004011791179  2.08538441634163 -1.75424667866787
 1  19.39841067426742  1.79030043234323 -1.74486490979098
 1  20.99696971227123  1.16225552935294  2.24441388298830
 1  22.12872751325132  1.84373290449045  1.14685895209521
 1  20.83685621822182  2.96414009020902  1.75671160236024

