%nproc=4
%Mem=2GB
# td=(NStates=1) CAM-B3LYP/6-31G(d,p) 

TD

0 1
12 -7.12276394569457  0.62044028472847  0.01912996159616
 6 -4.91295017611761 -1.91304341564156  0.45809144404440
 6 -4.81511081738174  2.78591291859186  1.27063052025203
 6 -9.39872446124612  3.14019641904190 -0.40848218121812
 6 -9.49812083968397 -1.76082625762576 -0.89885800080008
 7 -5.17150993259326  0.45880714121412  0.74126164656466
 6 -4.46203380868087 -0.67403802420242  0.83094499729973
 6 -2.97450841204120 -0.42963823592359  1.27016245744574
 6 -3.03030331953195  1.08587972047205  1.68940174657466
 6 -4.37369545624562  1.54165454585459  1.19621588278828
 6 -2.89212700370037  1.36389287658766  3.21185471157116
 6 -1.94891917281728 -0.76343035313531  0.17304663046305
 6 -0.44703295729573 -0.42900113151315  0.62306088898890
 6  0.49376875527553 -0.77100053215322 -0.64787643944394
 8  0.20376092579258 -1.14306571037104 -1.70541982228223
 8  1.83706073107311 -0.45901080788079 -0.23987820792079
 7 -7.11025863436344  2.57625903320332  0.30592574937494
 6 -6.03288041904190  3.29865081898190  0.69282726672667
 6 -6.41268925862586  4.79635026542654  0.81732949744974
 6 -7.70537113251325  4.85310519721972  0.43659056605661
 6 -8.12857341054105  3.44103439473947  0.05823616281628
 6 -5.47551333253325  5.82693378467847  1.23501002620262
 6 -8.60260947334734  5.95273034103410  0.39655967786779
 6 -8.21956115391539  7.20157624192419  0.06816255395540
 7 -9.17542257795779  0.60272675097510 -0.48323002830283
 6 -9.97335899489949  1.74590527312731 -0.44126925112511
 6 -11.25533027592759  1.46341733213321 -0.93510826042604
 6 -11.28519704040404  0.13304718201820 -1.16962622882288
 6 -9.91749163286329 -0.43706219431943 -0.72783208610861
 6 -12.23075131723172  2.56176845774577 -1.15034556545655
 6 -12.36871691739174 -0.78563962616262 -1.68908408560856
 6 -12.45622195419542 -0.92143602880288 -3.25197330273027
 7 -7.20313656575658 -1.45517487908791 -0.29840295899590
 6 -8.23649887218722 -2.25567150665066 -0.61324913081308
 6 -7.84893256075607 -3.60373455635564 -0.60193862286229
 6 -6.53034855685569 -3.58570288578858 -0.10221271337134
 6 -6.21995677387739 -2.25171132563256 -0.04439281788179
 6 -8.60921126582658 -4.79789260816082 -0.95425497249725
 6 -5.39300583828383 -4.30955694099410  0.13346184608461
 8 -5.05599696149615 -5.56760941454145  0.04655068986899
 6 -4.18322173217322 -3.29025195929593  0.56408730073007
 6 -3.49305366956696 -3.65494157875788  1.92113329302930
 8 -3.82407606220622 -3.18700193299330  3.01266498179818
 8 -2.57418876677668 -4.59092724522452  1.79535762376238
 6 -2.07131977047705 -5.05968643794380  3.07558889588959
 6  2.80551432803280 -0.62857211491149 -1.27179255415542
 6  4.11766508890889 -0.46186003540354 -0.62950547924792
 6  5.13781738913891  0.32011533603360 -1.01276117631763
 6  5.00075749234923  1.20397493379338 -2.34163125422542
 6  6.44280073767377  0.32711151805181 -0.13755044124412
 6  7.57858559745975 -0.28530041194119 -0.99146881558156
 6  8.96744582698270 -0.17687742124212 -0.19343193739374
 6  10.23754464746475 -0.52710980928093 -1.01490788518852
 6  10.18984617081708 -2.10015935083508 -1.35468713021302
 6  11.47019813691369 -0.45534642524252 -0.07350715201520
 6  12.78121529052905 -0.49924644054405 -0.81533207300730
 6  13.96389207700770 -0.03193995719572  0.10905811881188
 6  15.40197554155416 -0.16109872157216 -0.50302335263526
 6  15.69042314451445 -1.53454624042404 -0.91203848364837
 6  16.32906616061606  0.50050443654365  0.43227241194119
 6  17.76541224552455  0.58176630243024 -0.05282356225623
 6  18.83316871637164  1.29626147294729  0.80629299099910
 6  20.18313599339934  1.31302704730473  0.34573417701770
 6  20.32835306420642  2.24481012901290 -0.92619844124412
 6  21.17357523162316  1.93730810021002  1.38678538013801
 1 -4.08118837733773  3.46448483018302  1.70620514151415
 1 -9.95480923262326  3.98632621652165 -0.45938024062406
 1 -10.35413467526753 -2.50869092379238 -1.08175172267227
 1 -2.80380907160716 -1.05332499619962  1.97556479507951
 1 -2.23742338033803  1.82401088968897  1.34749911641164
 1 -1.73157688098810  1.14431992099210  3.70275048844884
 1 -3.23023780998100  2.59745920252025  3.28142270977098
 1 -3.43236421762176  0.73344771247125  3.79283316781678
 1 -2.01140366726673 -1.87037295769577 -0.11144613061306
 1 -2.31671587378738 -0.09412732143214 -0.68815391699170
 1 -0.58260535453545  0.68740666416642  0.94813706560656
 1 -0.27526348004801 -1.07072004740474  1.39188206410641
 1 -5.01174334203420  6.04663983908391  0.48065984818482
 1 -6.13032770307031  6.59949974877488  1.71336602580258
 1 -4.93363659245925  5.50564573597360  2.10475415411541
 1 -9.59256675557556  5.84547748384839  0.40766861136114
 1 -8.83939457985798  8.02821141064106  0.21295188848885
 1 -7.26271130773077  7.51771234043404 -0.32727719831983
 1 -11.92648806160616  3.29754706000600 -1.97448374677468
 1 -13.07715292879288  2.26251188928893 -1.52581610531053
 1 -12.78963592499250  3.20310339573957 -0.33740523852385
 1 -12.18390091819182 -1.77067946614661 -1.26774698259826
 1 -13.21820782438244 -0.19033284628463 -1.15654301130113
 1 -13.13876434263426 -1.55741698089809 -3.59487248494849
 1 -12.44716489048905 -0.03124185008501 -3.75143271827183
 1 -11.69732307990799 -1.60366331033103 -3.52206132163216
 1 -9.06810770667067 -4.96155900420042 -1.98685626702670
 1 -8.07139084008401 -5.60877098529853 -0.66675090319032
 1 -9.70805297109711 -4.98997578457846 -0.31823007920792
 1 -3.42512264426443 -3.40118170267027 -0.27969462246225
 1 -1.68703979397940 -4.22557093439344  3.54733142014201
 1 -2.86454164156416 -5.49202984538454  3.62674989708971
 1 -1.26047747424742 -5.79043322042204  2.89076577947795
 1  2.76971164226423 -1.55863555345535 -1.68020209650965
 1  2.57200890109011  0.01223414181418 -2.12333435323532
 1  4.21594081838184 -1.16010401660166  0.32407478367837
 1  3.95338627492749  1.51285238153815 -2.50296363866387
 1  5.48865216361636  2.18379276947695 -2.05825017961796
 1  5.39397472027203  0.73558388858886 -3.16927822712271
 1  6.44838786208621  1.46721294899490  0.12883038073807
 1  5.95067841584158 -0.27005025392539  0.78750975807581
 1  7.50914465656566 -1.25734680638064 -1.21113524222422
 1  7.81057258825883  0.34773164966497 -1.90325047194719
 1  9.09105520272027  0.88312092859286  0.22273623612361
 1  8.85683350615061 -0.74938329372937  0.83643826242624
 1  10.41451316281628  0.02259702600260 -1.86744057465747
 1  9.42040853725373 -2.31937898219822 -1.95994095529553
 1  10.93001608630863 -2.43149966256626 -2.18713489948995
 1  10.04181165476548 -2.49941156375637 -0.38416050675067
 1  11.37745250745074  0.60210461796180  0.26899886328633
 1  11.37198760846085 -0.98938127622762  1.04696216921692
 1  13.04873060876088 -1.52121898329833 -0.99309764466447
 1  12.64418332433243  0.18455793479348 -1.60462882668267
 1  13.88069957315732  1.01352460796080  0.13657031753175
 1  13.89047513781378 -0.53124556185619  1.10086525622562
 1  15.45432782488249  0.33846370677068 -1.52908256775678
 1  16.12997499849985 -2.12594932083208  0.10299270167017
 1  14.95565309710971 -2.26175436903690 -1.51325904630463
 1  16.60187824642464 -1.66512044064406 -1.71815392419242
 1  16.12212742244224  1.68046711941194  0.51348476947695
 1  16.36952865486549  0.07062066636664  1.34854778647865
 1  18.13091228312831 -0.41515847964796 -0.08739474707471
 1  17.68316839803980  0.92381363986399 -1.19026251015102
 1  18.31768045084509  2.23723562316232  1.17555265616562
 1  18.75691196859686  0.83241685298530  1.92670902250225
 1  20.50244031073107  0.37100353615362 -0.05656790639064
 1  19.97336416971697  3.14199318421842 -0.73298356785678
 1  21.36253236713672  2.08479435733573 -1.31635288928893
 1  19.67682851605160  1.83046444874487 -1.58638906220622
 1  21.06362637793779  1.50721002480248  2.27764720632063
 1  22.15105974647465  1.91322985418542  0.93398766496650
 1  20.86093862646265  2.89138281448145  1.45689162036204

