%nproc=4
%Mem=2GB
# td=(NStates=1) CAM-B3LYP/6-31G(d,p) 

TD

0 1
12 -7.18305997529753  0.58135637633763  0.26622467106711
 6 -4.76566544764476 -1.89098120942094  0.41586722162216
 6 -4.88437774407441  2.85117944524452  1.47035049224922
 6 -9.43817840664066  3.06393879327933 -0.39223055605561
 6 -9.51803283088309 -1.71235141014101 -0.77653576857686
 7 -5.16664944654465  0.52382364286429  0.78237575797580
 6 -4.37370497579758 -0.61679229962996  0.80466236903690
 6 -2.93497445864586 -0.33506877897790  1.40476591779178
 6 -3.09964025322532  1.12650378287829  1.81143394979498
 6 -4.44354244094409  1.53778415881588  1.37423368456846
 6 -2.92431022202220  1.22857934523452  3.35754928102810
 6 -2.02422670357036 -0.49253326342634  0.15787511331133
 6 -0.49930818481848 -0.18629686108611  0.53484206710671
 6  0.45434481288129 -0.58159159125913 -0.47019867166717
 8  0.24292484218422 -0.98542994679468 -1.66804608490849
 8  1.73433045804580 -0.34627953475348 -0.15996021612161
 7 -7.17981559005901  2.57196860416042  0.41700685748575
 6 -6.10065719671967  3.35222617651765  0.91072905690569
 6 -6.56329431913191  4.79882051245125  0.90462822732273
 6 -7.83309390479048  4.79967985468547  0.39428633563356
 6 -8.18325887908791  3.37070736203620  0.08704904410441
 6 -5.63705948714871  5.97130822212221  1.22117864306431
 6 -8.71562077447745  5.94244931293129  0.16095611751175
 6 -8.36234543234323  7.17842392669267 -0.25828009030903
 7 -9.10364540024002  0.67588406670667 -0.46888859415942
 6 -9.90423208220822  1.82355303790379 -0.57318244244424
 6 -11.24453919681968  1.40687167756776 -1.12852760236024
 6 -11.24471299199920  0.07180105740574 -1.23862312851285
 6 -9.91899178287829 -0.38567705580558 -0.87734703760376
 6 -12.25891413351335  2.29065134603460 -1.36993752465247
 6 -12.32435248094809 -0.87218828102810 -1.66695187238724
 6 -12.39674600660066 -1.08623250845085 -3.23866197159716
 7 -7.20730698279828 -1.45932529412941 -0.22980609930993
 6 -8.29633485578558 -2.28221416091609 -0.52265007090709
 6 -7.91893956145615 -3.63148733163316 -0.43284171317132
 6 -6.54016953895390 -3.56771108660866 -0.16471896399640
 6 -6.13002778097810 -2.18870502500250 -0.02381075967597
 6 -8.64567491219122 -4.75566838573857 -0.81837138413841
 6 -5.27859439713971 -4.33117910321032  0.12585108500850
 8 -5.17167852965297 -5.50394304790479  0.18051408620862
 6 -4.15495890589059 -3.27694062816282  0.48877976997700
 6 -3.41501586578658 -3.70196628122812  1.70847202690269
 8 -3.61779543414341 -3.24133736653665  2.80282399769977
 8 -2.60998234613461 -4.72184033653365  1.48467655565557
 6 -2.08929156765677 -5.33030349964996  2.72959429642964
 6  2.74316809340934 -0.60360961866187 -1.13089846474647
 6  4.01949527192719 -0.31349519891989 -0.49388191689169
 6  5.13825743314331  0.42163548804880 -0.92441234143414
 6  5.05146256285629  1.19248378467847 -2.28560565166517
 6  6.46343280088009  0.57919672657266 -0.23839052525253
 6  7.65702344124412  0.00668878697870 -0.99338900760076
 6  8.92959204160416 -0.05871560506051 -0.15081767596760
 6  10.20725161816182 -0.55330242854285 -0.95835222962296
 6  10.06293347954796 -2.13647298219822 -1.32130379187919
 6  11.50018113521352 -0.30120101070107 -0.06852665396540
 6  12.87412458145815 -0.76001251715172 -0.65395593539354
 6  14.08368405620562 -0.33356011921192  0.28518573157316
 6  15.37945328932893 -0.33515612731273 -0.42770582088209
 6  15.75176927912791 -1.69917270307031 -0.93036031583158
 6  16.53317657165717  0.26438082418242  0.53540272497250
 6  17.84260996529653  0.41925005080508 -0.15796407630763
 6  18.89715511501150  1.22403425022502  0.77877023872387
 6  20.32612029182918  1.37272301690169  0.14305390899090
 6  20.38339856875687  2.20631627962796 -1.10839666106611
 6  21.15353322742275  1.99680404980498  1.19632633423342
 1 -4.35319557805781  3.69941832353235  1.74694921592159
 1 -9.91613536523652  3.99969755365537 -0.89876417901790
 1 -10.31704096589659 -2.54768482318232 -0.98508205570557
 1 -2.71845053575358 -1.07493715741574  2.14374161276128
 1 -2.39447908590859  1.85393388198820  1.16787115361536
 1 -1.87360108340834  1.02034752375237  3.65809602300230
 1 -3.24913970017002  2.36089554615462  3.71191575907591
 1 -3.86611759295930  0.68445281298130  3.85744962946295
 1 -2.04764729162916 -1.62424834523452 -0.15373035903590
 1 -2.26149035123512  0.16354844614461 -0.78995409700970
 1 -0.37164425842584  0.89626755025503  0.71459371127113
 1 -0.06871282498250 -0.56900987638764  1.54719759565957
 1 -5.09911207890789  6.39834500960096  0.31306308850885
 1 -6.28092276257626  6.78898869766977  1.59217390659066
 1 -4.93294652345234  5.63040821222122  2.10821450015001
 1 -9.75114261316132  5.63939687578758  0.33219106360636
 1 -9.17408804920492  7.81176976647665 -0.25049445614561
 1 -7.27872290889089  7.64402497169717 -0.49527399799980
 1 -11.82942835563556  3.12431973727373 -2.07946424482448
 1 -13.15344055755575  1.92931856995700 -1.68038156185619
 1 -12.38811577297730  2.98938202360236 -0.52445394339434
 1 -12.22359488758876 -1.90961335953595 -1.18479868776878
 1 -13.30608661226123 -0.63766757975798 -1.37466482348235
 1 -13.25212567876788 -1.66366760596060 -3.57770076777678
 1 -12.81017119111911 -0.15360408630863 -3.84923249824983
 1 -11.37287063466347 -1.24600754475448 -3.58128724422442
 1 -8.96066696259626 -4.55219806810681 -1.89953753515352
 1 -7.94804850585059 -5.53536364456446 -0.83738796689669
 1 -9.67793995979598 -5.01209799679968 -0.33290154635464
 1 -3.48108824082408 -3.43789537403740 -0.37386403940394
 1 -1.55779686968697 -4.47594597189719  3.24568125512551
 1 -2.93620880828083 -5.72431307370737  3.09571679377938
 1 -1.37928935543554 -6.22554673177318  2.39793649654965
 1  2.66994166526653 -1.61652134203420 -1.39602367866787
 1  2.73022472267227  0.04334725312531 -1.96668868866887
 1  4.28640786508651 -0.83662166836684  0.48223059925993
 1  3.99453038933893  1.45017611391139 -2.57112045434543
 1  5.59521281968197  2.23305769596960 -2.23562791739174
 1  5.47557288008801  0.39743007320732 -3.16609790909091
 1  6.67919094239424  1.72922915061506 -0.06317882018202
 1  6.31565491349135  0.07231398249825  0.75605661276128
 1  7.50658440054005 -1.17365843754375 -1.24795892459246
 1  8.09484101510151  0.48044492099210 -1.95087523442344
 1  9.03303940114011  0.97404002050205  0.15830979347935
 1  8.91417924072407 -0.53290164556456  0.88131274987499
 1  10.38968067956796 -0.09906514021402 -1.83538736933693
 1  9.18004450085009 -2.27751479577958 -1.95774073527353
 1  10.95635872057206 -2.52931944454445 -1.75825201120112
 1  10.08227570117012 -2.67285890849085 -0.35962805350535
 1  11.32829759195920  0.71230563806381  0.32869483288329
 1  11.22602301200120 -0.81909424752475  0.88395586858686
 1  12.84141987768777 -1.79078593999400 -0.93934226912691
 1  13.05781468746875 -0.07501802280228 -1.69813817761776
 1  14.01951345454546  0.64957821332133  0.64017067756776
 1  14.07904399469947 -0.81200363766377  1.39015418511851
 1  15.36197858995900  0.34239409980998 -1.43005266476648
 1  15.80911291229123 -2.33038976487649 -0.15756335393539
 1  15.08392592439244 -2.34185237883788 -1.69771749214922
 1  16.87716577517752 -1.47922185078508 -1.24006611541154
 1  16.14028923862386  1.14172324502450  1.03119654065406
 1  16.79824152615262 -0.45135153085309  1.36030896259626
 1  18.18919811171117 -0.58439540334033 -0.34756076367637
 1  17.84827490869087  1.21990324882488 -1.14859834373437
 1  18.56364504730473  2.20432233183318  0.90233533443344
 1  18.82298857625763  0.70509412071207  1.88623497509751
 1  20.86054612131213  0.42212864866487 -0.03021527112711
 1  19.67459429272927  3.12341132603260 -1.10197046654665
 1  21.39652576647665  2.90765664356436 -1.28288954295430
 1  20.14512534573457  1.74930633293329 -2.15568599189919
 1  21.29688970427043  1.33528283208321  2.26849629122912
 1  22.22658729922992  2.44737326852685  1.02209647584758
 1  20.70972350495050  3.15209888608861  1.37413334453445

