%nproc=4
%Mem=2GB
# td=(NStates=1) CAM-B3LYP/6-31G(d,p) 

TD

0 1
12 -7.14751642094209  0.58118635933593  0.15920396899690
 6 -4.80199908100810 -1.97785989728973  0.56059169406941
 6 -4.79365867216722  2.85109943724372  1.29452290949095
 6 -9.37885247404740  3.09382178157816 -0.34021535453545
 6 -9.53052408000800 -1.76487666266627 -0.79654776977698
 7 -5.07530031163116  0.43766502700270  0.69653717411741
 6 -4.29054665996600 -0.76393701410141  0.81439334213421
 6 -2.88293925512551 -0.31688696079608  1.12209765096510
 6 -2.96515680488049  1.12544367686769  1.66909971637164
 6 -4.31535962266227  1.48169855025503  1.24795105630563
 6 -2.93260105110511  1.11827831513151  3.15096862296230
 6 -1.82438671957196 -0.55801981208121 -0.02100277447745
 6 -0.44856311031103 -0.38413664506451  0.44579316221622
 6  0.60807018541854 -0.52886631873187 -0.68705035683568
 8  0.13946449614961 -0.91884328812881 -1.73447272757276
 8  1.81767879287929 -0.36894180098010 -0.36487070717072
 7 -7.07866547504751  2.58869027632763  0.26698185498550
 6 -6.05006213721372  3.38801975587559  0.75537352135214
 6 -6.39443743344335  4.83430406080608  0.91647941244124
 6 -7.70091068646865  4.88212809950995  0.42806971397140
 6 -8.11083163636363  3.45223551485148  0.05536587578758
 6 -5.60652643384338  5.85747683898390  1.24415094029403
 6 -8.59383859625963  5.98819388738874  0.30326034793479
 6 -8.15999519731973  7.25982206650665  0.07559329702970
 7 -9.17882291799180  0.58711518981898 -0.54820652595260
 6 -9.93845550455045  1.75538622122212 -0.61434655885589
 6 -11.33487823072307  1.44242523292329 -1.00621537113711
 6 -11.30092861356136  0.03676755405541 -1.16127539373937
 6 -9.93213309700970 -0.45813430153015 -0.90092939583958
 6 -12.44895313741374  2.36540882178218 -1.30159068996900
 6 -12.43993403910391 -0.79503056525653 -1.70622579977998
 6 -12.29535586758676 -1.16189007420742 -3.16543464886489
 7 -7.18806505860586 -1.40492985458546 -0.00005312401240
 6 -8.27495271757176 -2.20151609110911 -0.43933173907391
 6 -7.86208387588759 -3.63933811671167 -0.46795522452245
 6 -6.52854837683768 -3.56408072357236 -0.06073856595660
 6 -6.20840561876188 -2.19139529402940  0.20090171157116
 6 -8.65922626732673 -4.86079889878988 -0.70348989598960
 6 -5.39658619631963 -4.40150613591359  0.14333283318332
 8 -5.29582094389439 -5.60448310191019  0.07405344014401
 6 -4.17928133813381 -3.34208714281428  0.58344923692369
 6 -3.48701306550655 -3.72197828242824  1.87768894859486
 8 -3.80636429102910 -3.03717695049505  2.90605432073207
 8 -2.56607795569557 -4.67616576907691  1.70902899089909
 6 -2.09221185968597 -5.08927939723972  3.01812314931493
 6  2.86473024962496 -0.54809406710671 -1.27504287918792
 6  4.15279860226023 -0.34251810121012 -0.62974550325032
 6  5.19348295569557  0.47711103560356 -1.02776267646765
 6  5.11655907250725  1.30834537083708 -2.28375546664666
 6  6.45998245584558  0.47330613751375 -0.31297798399840
 6  7.57208494739474 -0.17576945884588 -1.13785345404540
 6  8.83420250265027 -0.17393712721272 -0.37878047224722
 6  10.18033892689269 -0.61409850815082 -1.06384277867787
 6  10.04892207840784 -2.04421375627563 -1.55742740424042
 6  11.39396051315132 -0.50777166776678 -0.00899070037004
 6  12.71745891489149 -0.50401691759176 -0.74383492329233
 6  13.87515320312031 -0.07251401460146  0.16622383538354
 6  15.34492983698370 -0.07290990269027 -0.45297834813481
 6  15.69882398459846 -1.48672145794579 -0.98525580538054
 6  16.44636789078908  0.32714710081008  0.60905008970897
 6  17.80789649394940  0.57061518731873  0.01066278637864
 6  18.85146054555456  1.19567141394139  0.81400376207621
 6  20.33770144994499  1.30757650225022  0.35626523012301
 6  20.15920614951495  2.23530917891789 -0.85360118151815
 6  21.16347422152215  1.77126149554956  1.53158986058606
 1 -3.97174743324332  3.45999438113811  1.42172669366937
 1 -10.15665941764176  3.98840642454245 -0.68566286888689
 1 -10.36119538133813 -2.47608766346635 -1.06959050655065
 1 -2.63261195189519 -1.07348701240124  2.05508274687469
 1 -2.09456909490949  1.43989247784778  1.14830919741974
 1 -1.96329005230523  0.82108759775978  3.66664687808781
 1 -2.96974176037604  2.19700915751575  3.32256682418242
 1 -3.67368835003500  0.40809517721772  3.63712759725973
 1 -2.00423295019502 -1.44582050245025 -0.43517850385038
 1 -2.09466366856686  0.17406949824982 -0.82644774637464
 1 -0.08417551155116  0.46645456895690  1.09868212011201
 1 -0.30690664436444 -1.37598057345735  1.33634651055106
 1 -5.00079224692469  6.11286646174618  0.40153193539354
 1 -6.03794846514652  6.70283008180818  1.69183387258726
 1 -4.88270149894989  5.63702887428743  2.06468014671467
 1 -9.62188968786879  5.81906484258426  0.16951479597960
 1 -8.78096873727373  8.01450003950395 -0.09764917161716
 1 -7.21546658325833  7.59915048424843 -0.08485295589559
 1 -12.32943835663566  2.93559086438644 -2.37129342774277
 1 -13.53263847734773  1.81113675177518 -1.07758128182818
 1 -12.37996495789579  3.28203128852885 -0.58304980298030
 1 -12.44095662376238 -1.73247564576458 -1.07687789568957
 1 -13.46308231183118 -0.15207902090209 -1.55904326132613
 1 -13.33006347254725 -1.89483072227223 -3.37941093879388
 1 -12.31114128812881 -0.17240596649665 -3.94507208220822
 1 -11.27916126372637 -1.80486343034303 -3.28205732123212
 1 -9.23516441234123 -4.95753860216022 -1.82779036043604
 1 -8.08740244124412 -5.85113522172217 -0.72425665376538
 1 -9.43953611941194 -4.98778556555656  0.23686543034303
 1 -3.37894802680268 -3.57305889038904  0.09230257725773
 1 -1.62122321232123 -4.25810418771877  3.72745943294329
 1 -2.74786997439744 -5.53833447584758  3.52821004310431
 1 -1.54877630413041 -5.96813099019902  2.65778248114812
 1  2.76339101020102 -1.42808249814981 -1.78204228052805
 1  2.92741444164417 -0.03345042664266 -2.29646166596660
 1  4.29734895919592 -1.14139214541454  0.20013238943894
 1  4.03979491579158  1.27954905120512 -2.50547388968897
 1  5.39487278567857  2.35710010021002 -1.98670302490249
 1  5.95468079087909  0.82980331053105 -2.94933623292329
 1  6.79193221652165  1.31949817751775 -0.05542804510451
 1  6.43880722872287 -0.19968321722172  0.58645965306531
 1  7.14591833393339 -1.15896696839684 -1.40463459215922
 1  7.64539607060706  0.28129500600060 -2.19837998489849
 1  8.87621371857186  0.77812042854285 -0.04185022252225
 1  8.57381520432043 -0.81859021442144  0.55858047664766
 1  10.46977868936894  0.21515628192819 -1.73368719931993
 1  9.34274077047705 -2.24111115541554 -2.38078303950395
 1  11.00760384508451 -2.55782229482948 -1.84269045504550
 1  9.70102757635764 -2.61876349894990 -0.76403849454946
 1  11.39368413061306  0.50022442994299  0.40342230563056
 1  11.23881429112911 -1.20625296339634  0.79834730773077
 1  12.92363809950995 -1.29891675307531 -1.20916925182518
 1  12.75204411041104  0.15621510051005 -1.60852921672167
 1  13.83560506370637  0.93931718721872  0.58820548104810
 1  13.72587867816782 -0.81278371567157  1.12938810851085
 1  15.56464885698570  0.59172903330333 -1.17268692819282
 1  15.93624562556256 -2.11927865376538 -0.15092268986899
 1  14.91486901870187 -1.74226241984198 -1.57186490689069
 1  16.75795385398540 -1.66972090069007 -1.53666577537754
 1  16.13370858055805  1.35334440714071  0.83718713971397
 1  16.59717141914192 -0.17565396109611  1.46916984868487
 1  18.22680187208721 -0.46539350315031 -0.07074308190819
 1  17.86340642184219  1.03774503300330 -1.06112959685969
 1  18.39961864466446  2.09882178177818  0.88475357625763
 1  18.72930920832083  0.60169378067807  1.80053640524052
 1  20.54083415011501  0.28536497229723  0.16313406380638
 1  19.75683251655166  3.23567255215521 -0.47503777327733
 1  21.10472658655866  2.46394227212721 -1.30846210021002
 1  19.94258509170917  1.74436583888389 -1.85740616391639
 1  21.26872688798880  1.25424472827283  2.39086852845285
 1  22.21038567906791  1.86563509470947  1.13755802200220
 1  20.77933046564657  2.71668534473447  1.84503043424342

