%nproc=4
%Mem=2GB
# td=(NStates=1) CAM-B3LYP/6-31G(d,p) 

TD

0 1
12 -7.07505917521752  0.54691293199320 -0.03806575797580
 6 -4.89319820092009 -1.95309742104210  0.54719035393539
 6 -4.81174048034804  2.88062238953895  1.09295275247525
 6 -9.36138072687269  3.01718411781178 -0.41637297029703
 6 -9.49561058865887 -1.81497167216722 -0.80958907390739
 7 -5.10271305290529  0.42051331183118  0.74029154955496
 6 -4.42402000730073 -0.67340796119612  0.88648055085509
 6 -2.94962592379238 -0.34364963706371  1.24563000420042
 6 -3.05725601480148  1.06125725822582  1.66268907530753
 6 -4.41167925462546  1.40862124252425  1.15033129432943
 6 -2.87451524252425  1.35775226252625  3.16554008010801
 6 -1.83748802970297 -0.60470448054805  0.20037936373637
 6 -0.44107236123612 -0.42560079147915  0.67540612351235
 6  0.54730410881088 -0.55096852895290 -0.44014566636664
 8  0.32013256295630 -0.91688309210921 -1.53436271657166
 8  1.82391941694169 -0.34553946074607 -0.06465068516852
 7 -7.06367397589759  2.64894630193019  0.39771492829283
 6 -6.02146927792779  3.37700865476548  0.78801678567857
 6 -6.44852284198420  4.77576820722072  0.90752851735174
 6 -7.74763535893589  4.87319720642064  0.44552145914591
 6 -8.14929548274827  3.47455774707471  0.16209654885489
 6 -5.59154493569357  5.82925401670167  1.30141666686669
 6 -8.63091230363036  5.88668373637364  0.37451747364736
 6 -8.34883408120812  7.24698078237824  0.10156589428943
 7 -9.11175621132113  0.66134261256126 -0.54128583388339
 6 -9.82859451845185  1.74180486308631 -0.73666879107911
 6 -11.20279502240224  1.46882787318732 -1.11461621122112
 6 -11.30599912061206  0.07800167746775 -1.22263152935294
 6 -9.92505238893889 -0.37185567366737 -0.93469277217722
 6 -12.35054329642964  2.39473175407541 -1.40042057295730
 6 -12.32297234293429 -0.81829289148915 -1.72465764296430
 6 -12.23690002200220 -1.09792367756776 -3.22190029542954
 7 -7.27408366046605 -1.39079844144414 -0.10083320202020
 6 -8.23674889718972 -2.29893583308331 -0.56571437733773
 6 -7.76783445094509 -3.67591177407741 -0.49939836883688
 6 -6.54652017401740 -3.53247756325633  0.00549805770577
 6 -6.21660643884388 -2.12260841534153  0.19902152355236
 6 -8.51488183288329 -4.97299011791179 -0.92124167116712
 6 -5.26444298199820 -4.33155914121412  0.15567406730673
 8 -5.02555391719172 -5.53156581018102  0.10553658845885
 6 -4.14886829682968 -3.26762969706971  0.46549744174417
 6 -3.62165652985299 -3.68644472907291  1.81936311601160
 8 -3.67923157775778 -3.07742097489749  2.85626934223422
 8 -2.93106445434543 -4.86596474897490  1.73298138613861
 6 -2.19265190369037 -5.37115758505851  2.88387972497250
 6  2.79165294189419 -0.58994825252525 -1.10442581748175
 6  4.13846716911691 -0.29755360476048 -0.43362589128913
 6  5.08940254765477  0.51895522002200 -0.95839573977398
 6  4.97061447804780  1.33627816411641 -2.15273236433643
 6  6.43341979957996  0.58206701360136 -0.19859654585459
 6  7.56322406130613  0.10364848294829 -0.92808247694769
 6  8.98036711911191 -0.05611534503450 -0.14027662186219
 6  10.23133402640264 -0.53911100940094 -1.00896729112911
 6  10.10856804300430 -1.96153548844884 -1.37632929442944
 6  11.31605272237224 -0.22574346494649 -0.01306110741074
 6  12.70969813881388 -0.40781729762976 -0.65797633743374
 6  13.94180986878688 -0.22925968916892  0.17366457945795
 6  15.34133947794779 -0.35959857155716 -0.51816486678668
 6  15.70839494169417 -1.72474526032603 -0.94866214601460
 6  16.33852710671067  0.42604699079908  0.40216940164016
 6  17.74030973527353  0.49380750655066 -0.21408968886889
 6  18.76393179267927  1.27223907070707  0.66265862756276
 6  20.28658633843384  1.23012875747575  0.23699330293029
 6  20.29828005690569  1.83441908990899 -1.10325614701470
 6  21.16280415451545  1.90191456085609  1.29843654525453
 1 -4.10969122762276  3.32316069776978  1.83744826582658
 1 -10.20090384208421  3.79295687958796 -0.61756605920592
 1 -10.23195245704570 -2.41340139483948 -1.12403595109511
 1 -2.55167385808581 -1.06969663336334  1.98004524312431
 1 -2.31999163716372  1.66988547714771  0.93275764226423
 1 -1.81512523582358  1.09144463346335  3.59727994139414
 1 -2.94804959115912  2.44911436803680  3.43898846634663
 1 -3.60150113131313  0.78965333303330  3.47871175567557
 1 -2.03335586248625 -1.63094901530153 -0.28177316331633
 1 -2.09225342754275 -0.07328523722372 -0.63060816241624
 1 -0.26337343134313  0.38912683618362  1.24488674057406
 1 -0.13413936763676 -1.10390336573657  1.36928980488049
 1 -4.99006117381738  6.04032920802080  0.36372815501550
 1 -6.16289095939594  6.61856165496550  1.63622831203120
 1 -4.71002423122312  5.53634880628063  2.00892457115712
 1 -9.62763026192619  5.64766770287029  0.41784962946295
 1 -9.22287292769277  7.91417000650065  0.00524111741174
 1 -7.22051708830883  7.39717028622862 -0.10960543114311
 1 -11.91298671147115  3.22409971527153 -1.97671396979698
 1 -13.35838105160516  1.77923356145615 -1.97884140784078
 1 -12.64999196059606  2.74444753015302 -0.32769426742674
 1 -12.27312984108411 -1.66845924412441 -1.37092730063006
 1 -13.23111911551155 -0.44927874087409 -1.57897525452545
 1 -13.08567903410341 -1.48243948314831 -3.80258325602560
 1 -12.21691186518652 -0.10007873377338 -3.88307588258826
 1 -11.37387073467347 -1.66825976997700 -3.37343645914591
 1 -8.86005690159016 -4.98837168546855 -2.07402498389839
 1 -7.82985668666867 -5.81684179237924 -0.93918814691469
 1 -9.45974814061406 -5.15376216321632 -0.42999125532553
 1 -3.30943107510751 -3.26136772127213 -0.27749440244024
 1 -1.32519360936094 -4.71945032233223  3.26391307830783
 1 -3.01774696209621 -5.51415205760576  3.77703492559256
 1 -1.68549997649765 -6.15304948204820  2.55835253815382
 1  2.85406007710771 -1.61775146504651 -1.53593767006701
 1  2.62308400860086 -0.02241932353235 -2.04011603140314
 1  4.43984320862086 -0.91645965216522  0.34753712991299
 1  4.04553548984898  1.24651574787479 -2.65728907120712
 1  4.94695799419942  2.35301969216922 -1.96435078967897
 1  5.62209753255325  1.07890822102210 -2.96521782108211
 1  6.89156217951795  1.65758198589859  0.14721221892189
 1  6.53009635763576  0.10017676877688  0.74927593469347
 1  7.21225496759676 -1.02942401410141 -1.29074320302030
 1  7.76432796379638  0.51089796629663 -1.82773292019202
 1  9.08605470267027  0.92783540004000  0.38378234073407
 1  8.93250107290729 -0.70625898129813  0.64261888048805
 1  10.35827753925392  0.29231399769977 -1.75209904050405
 1  9.16623311971197 -2.00916796109611 -2.20715567676768
 1  10.98083116781678 -2.03633014561456 -1.84640082608261
 1  9.60355782938294 -2.54433605620562 -0.52389448014801
 1  11.27674243644364  0.72468687618762  0.41853381678168
 1  11.21464187388739 -0.86416875497550  0.83492096509651
 1  12.86650238593859 -1.42960982238224 -1.18700703560356
 1  12.75710461646165  0.31361084008401 -1.45940430423042
 1  13.79088059125913  0.76157941344134  0.67922458295830
 1  13.70328641894189 -0.72072450975097  1.25202037173717
 1  15.47050944304431  0.29924978537854 -1.47998765826583
 1  15.81656365736574 -2.28729545544554 -0.02640023762376
 1  15.03577110891089 -2.12085027862786 -1.59384710511051
 1  16.72812087068707 -1.72967689628963 -1.73114522332233
 1  16.09750496019602  1.51939101180118  0.58207162816282
 1  16.58809051105111 -0.20376677237724  1.29634256595660
 1  18.21553074497450 -0.59367633143314 -0.25681168876888
 1  17.65479556075608  0.77428868736874 -1.24244772867287
 1  18.50991967476748  2.41927382698270  0.71669677057706
 1  18.68622489988999  0.79329294059406  1.83026937853785
 1  20.77800786748675  0.18426486228623  0.06928467886789
 1  19.75795262856286  2.78342732763276 -0.96539680918092
 1  21.41962807670767  2.21142702060206 -1.50403165716572
 1  19.82574340754075  1.14359576187619 -1.90878130143014
 1  20.89106912221222  1.30264956875688  2.21676111771177
 1  22.20045468596860  1.81978050925093  0.97584185038504
 1  20.86773930653066  3.02528620482048  1.25708163936394

