%nproc=4
%Mem=2GB
# td=(NStates=1) CAM-B3LYP/6-31G(d,p) 

TD

0 1
12 -7.17417908720872  0.65838407910791  0.08062611121112
 6 -4.73339222032203 -1.96911902320232  0.40236587148715
 6 -4.78534784108411  2.80136446374637  1.20167362456246
 6 -9.45715030383038  3.09775217461746 -0.33213454645465
 6 -9.60322134973497 -1.72367254225423 -0.93913202820282
 7 -5.15491827342734  0.49435069556956  0.62718023842384
 6 -4.31768937423742 -0.66073669406941  0.72618452125213
 6 -2.95884684588459 -0.37579285138514  1.25837127832783
 6 -3.07231752095210  1.09159029152915  1.61325413181318
 6 -4.44191227792779  1.48891927232723  1.15494175537554
 6 -2.89514730573057  1.28204469176918  3.15943947004700
 6 -1.90807508840884 -0.63515752585259  0.14697402320232
 6 -0.45304355835584 -0.42892112351235  0.52358094099410
 6  0.54584396279628 -0.68179161126113 -0.54075572737274
 8  0.26348689838984 -1.00852225602560 -1.67782706300630
 8  1.81112813781378 -0.50572547934793 -0.04542876297630
 7 -7.15150275877588  2.55973738103810  0.48004316111611
 6 -6.09428655965597  3.37740869476948  0.85048303230323
 6 -6.49781777147715  4.71204183458346  0.78430619511951
 6 -7.78963955935594  4.90549043574357  0.43700060706071
 6 -8.27195774897490  3.48816910821082  0.09887022622262
 6 -5.53919970117012  5.88435952725272  1.29846637183718
 6 -8.74085329772977  5.97652272027203  0.40232025392539
 6 -8.38529772757276  7.17408349264926  0.29691542924292
 7 -9.19333436913691  0.67462394069407 -0.48022972827283
 6 -9.91230288928893  1.84018470107011 -0.58942406660666
 6 -11.23762850575058  1.44611560196020 -1.20084483408341
 6 -11.23705222592259  0.04506838413841 -1.28687795399540
 6 -9.93169305300530 -0.37172566066607 -0.79160846374637
 6 -12.35853409550955  2.40541282218222 -1.25315584648465
 6 -12.38310835653565 -0.74964602680268 -1.74698987618762
 6 -12.43305963796380 -0.80015390059006 -3.30163826922692
 7 -7.22032828492849 -1.35310467206721 -0.32453557225723
 6 -8.22789801210121 -2.22557849734973 -0.68605641154115
 6 -7.81820948844884 -3.62030621352135 -0.65037346634663
 6 -6.48631415341534 -3.55009932543254 -0.15120761286129
 6 -6.16780155835584 -2.17314346884688  0.03815543694369
 6 -8.62070241494149 -4.86727954685469 -0.96780632763276
 6 -5.29799633733373 -4.34989097439744  0.30321882178218
 8 -5.14707606940694 -5.58555120872087  0.34888092289229
 6 -4.08305171517152 -3.33919685378538  0.50195108710871
 6 -3.49931429562956 -3.66933301790179  1.85808698839884
 8 -3.80503415801580 -3.16217945074507  2.93163687898790
 8 -2.62329367726773 -4.69607776027603  1.74329241724172
 6 -2.09106174467447 -5.16158662796280  2.94472580958096
 6  2.83738751535153 -0.71391064876488 -1.03543891879188
 6  4.09028235063506 -0.36339018841884 -0.38699122782278
 6  5.10252385978598  0.27795111961196 -1.00546044624462
 6  5.03636105270527  1.14721925822582 -2.30234732583258
 6  6.35638209580958  0.25304411131113 -0.26074276047605
 6  7.74209194809481 -0.20199208110811 -1.03207287598760
 6  8.88641772417242 -0.12231196469647 -0.05217781198120
 6  10.15290618361836 -0.67004410271027 -0.85051144554455
 6  10.11178836503650 -2.12382171707171 -1.24766642814281
 6  11.38211932903290 -0.34969586018602 -0.00028983028303
 6  12.85686285528553 -0.41788830473047 -0.75875641544154
 6  13.93321900970097  0.06910014681468  0.15505271827183
 6  15.37548289228923 -0.17678028972897 -0.59363241354135
 6  15.77849195139514 -1.62703548934893 -0.81851913171317
 6  16.43155640964096  0.59198358445845  0.24143332803280
 6  17.93074877917792  0.53897202300230 -0.22893117301730
 6  18.85387078657866  1.25228707550755  0.75131749344934
 6  20.31161884168417  1.27310305490549  0.28718832243224
 6  20.51444167306731  1.99450509850985 -1.05519134053405
 6  21.14342221632163  1.98579294869487  1.27261396299630
 1 -3.96248650715071  3.77924630633063  1.40641516251625
 1 -10.50359411111111  3.67965554945495 -0.30454475707571
 1 -10.24253351515151 -2.54381443614361 -1.11590513801380
 1 -2.70388907960796 -0.92784244794479  2.09420665926593
 1 -2.52695233323332  1.70515900450045  1.25006937343734
 1 -1.67682140544054  1.15864135313531  3.36332654605461
 1 -3.30956574277428  2.22232168876888  3.60523509100910
 1 -3.58018900010001  0.68861322902290  3.70174405890589
 1 -2.09465199209921 -1.63487940834083  0.06046106010601
 1 -2.17888209040904 -0.19386729542954 -0.90890599219922
 1 -0.15804289828983  0.48829675317532  0.90082233413341
 1 -0.24798075177518 -1.24704768016802  1.47191006690669
 1 -5.22309447714771  6.33964914001400  0.27945972817282
 1 -6.13911858215822  6.71538133693369  1.90777546674667
 1 -4.56079930873087  5.51230640204020  1.57131080978098
 1 -9.81866936583658  5.65263819991999  0.43013085758576
 1 -9.28239888028803  7.89736832633263  0.22230282358236
 1 -7.36695173177318  7.42500306950695  0.14726025542554
 1 -12.21770718351835  3.00265757105711 -2.10881718011801
 1 -13.17178239173917  1.77834347244724 -1.47226074977498
 1 -12.41894885628563  2.99531261666167 -0.29371086908691
 1 -12.22700522862286 -1.92224462266227 -1.47983819171917
 1 -13.40316632023202 -0.37618143114311 -1.64606196319632
 1 -13.19296976317632 -1.76886812601260 -3.21114411211121
 1 -13.03951412541254  0.01400267436744 -3.85109268426843
 1 -11.38803215081508 -1.33773671767177 -3.71517063256326
 1 -8.87064796069607 -4.65009785808581 -2.03244082548255
 1 -7.96759046004601 -5.68931904010401 -0.81297552565256
 1 -9.45515768156816 -5.09568635563556 -0.34902315851585
 1 -3.12395252725273 -3.41223280778078 -0.26337299029903
 1 -1.63499458945895 -4.46258463576358  3.60253694069407
 1 -2.89273446084609 -5.79186982938294  3.56490371247125
 1 -1.18575000150015 -5.84808898599860  2.64046074897490
 1  2.73000767186719 -1.80441013091309 -1.28378245454545
 1  2.59674137433743 -0.09221630323032 -1.94892691249125
 1  4.49404862916292 -0.90476848304831  0.54423679987999
 1  4.12688362466247  1.24171526782678 -2.77357069936994
 1  5.46649994839484  2.11457584778478 -2.11295565016502
 1  5.78637396019602  0.81316164636464 -2.90759205850585
 1  6.48315133843384  1.30325655335534  0.02127962566257
 1  6.33016636463646 -0.13512676157616  0.73579458655866
 1  7.74469821192119 -1.18936000770077 -1.39154328302830
 1  7.73875540654065  0.50425730223022 -1.85363551045105
 1  9.16298239543954  0.92637525402540  0.21723568606861
 1  8.73824164696470 -0.68113646904691  0.82030664926493
 1  10.40453216471647 -0.02602783648365 -1.70539437003700
 1  9.12315881228123 -2.46970401470147 -1.75789075027503
 1  10.99360244494449 -2.43613012561256 -1.81482766876688
 1  9.77645511911191 -2.58327995059506 -0.30916300700070
 1  11.41210597279728  0.76252065956596  0.19401136453645
 1  11.42171258095810 -0.96128846694669  1.01418889188919
 1  12.84483021872187 -1.42478934033403 -1.02741107600760
 1  12.77201610761076  0.16610608960896 -1.72053041684168
 1  13.66528803200320  1.16796005150515  0.36066272677268
 1  13.87744383468347 -0.48558099539954  1.13786895659566
 1  15.30387277937794  0.57700756115612 -1.71320097959796
 1  15.63677567856786 -2.19879660556056  0.18399080148015
 1  14.98174570637064 -2.20899909350935 -1.29204692509251
 1  16.79634769336934 -1.80225415401540 -1.16598870767077
 1  16.19935514521452  1.55559463216322  0.77660108110811
 1  16.51580328232824  0.06489009330933  1.32536546824682
 1  18.39260845274528 -0.43192015581558 -0.29533554115412
 1  18.02675275647565  1.10285154365437 -1.20120360426043
 1  18.59891857465746  2.24085598519852  0.65655075597560
 1  18.57936421382138  0.82675628692869  1.79701605320532
 1  20.62405247194719  0.23782021782178  0.00673842424242
 1  20.53280011331133  3.12399138403840 -0.84598486798680
 1  21.46709282318232  1.84836071397140 -1.66477773177318
 1  19.78649948314832  1.76658806110611 -1.92702312561256
 1  21.09907992329233  1.46104540834083  2.24149359095910
 1  22.16572121262126  2.18049658085809  0.95100936713671
 1  20.81870440304030  3.01918559475948  1.59057498869887

