%nproc=4
%Mem=2GB
# td=(NStates=1) CAM-B3LYP/6-31G(d,p) 

TD

0 1
12 -7.18161983128313  0.54303254395440  0.08730677927793
 6 -4.81824070517052 -1.90832294359436  0.53673930883088
 6 -4.83681298759876  2.78532285958596  1.30591404860486
 6 -9.42560714951495  3.00678307770777 -0.22280361336134
 6 -9.52348337593759 -1.76608678367837 -0.93373148814881
 7 -5.06651943354335  0.43540480098010  0.68599612001200
 6 -4.24006161146115 -0.71424204460446  0.71254315711571
 6 -2.88924988618862 -0.36909218131813  1.23865930713071
 6 -3.06522681188119  1.07605873837384  1.74244705110511
 6 -4.34745283198320  1.43789416981698  1.19669593079308
 6 -2.89321711271127  1.29901638893889  3.28798232433243
 6 -1.82453673457346 -0.61740575067507  0.17333665946595
 6 -0.44953320732073 -0.38397662906291  0.66082466536654
 6  0.48672805120512 -0.48846227832783 -0.59618126992699
 8  0.17864841454145 -0.97946935073507 -1.60718999929993
 8  1.72587961296130 -0.30604551135114 -0.14205842594259
 7 -7.10108771727173  2.62149355665567  0.45137029382938
 6 -6.02880001100110  3.34340529442944  0.86713469746975
 6 -6.38929691939194  4.69764039443944  0.88121588608861
 6 -7.71125172057206  4.83715360206021  0.37437434443444
 6 -8.13385393859386  3.41483177447745  0.15193553275328
 6 -5.49358513971397  5.89658074937494  1.32934946014601
 6 -8.60249946234624  6.03183825182518  0.22143216511651
 6 -8.21743094089409  7.29648573287329 -0.01368563086309
 7 -9.06519155485548  0.57917439573957 -0.56618832413241
 6 -9.81186284528453  1.68409909250925 -0.60361548574857
 6 -11.14883962686269  1.40849183958396 -1.10571532113211
 6 -11.20019854055406  0.00977485478548 -1.34159342554255
 6 -9.87604748844884 -0.52641112921292 -0.96551585448545
 6 -12.31695993809381  2.42712499339934 -1.36486701760176
 6 -12.48772881858186 -0.68248931113111 -1.79253443064306
 6 -12.40647697969797 -1.10728461366137 -3.28944705010501
 7 -7.16382263436344 -1.39810917251725 -0.17209032773277
 6 -8.22093731603160 -2.22364830433043 -0.53726153205321
 6 -7.77382505000500 -3.60142432533253 -0.55483391239124
 6 -6.53086860886089 -3.55989030453045 -0.09586207830783
 6 -6.13184796299630 -2.25686184068407  0.16619824122412
 6 -8.61898224292429 -4.82006482538254 -0.83160270727073
 6 -5.28617515521552 -4.45930191549155  0.14822332223222
 8 -5.18923028482848 -5.65014766836684  0.21056709150915
 6 -4.17008041804180 -3.28480141424142  0.58455934793479
 6 -3.54011837603760 -3.65737182178218  1.86196737643764
 8 -3.86979063366337 -3.21154438723872  2.94182789808981
 8 -2.63094444234423 -4.71977012951295  1.68986707470747
 6 -2.17196983548355 -5.26105657495750  2.91096243324332
 6  2.81251502810281 -0.66445570327033 -1.11253662856286
 6  4.11781510391039 -0.30605445484548 -0.51253378207821
 6  5.08813242064206  0.49870319481948 -0.97828772897290
 6  4.99534695129513  1.23843838013801 -2.17359445054505
 6  6.46758321592159  0.54396320322032 -0.23741042724272
 6  7.53745148404840 -0.04912679457946 -1.10787045574557
 6  8.82757183958396  0.04863513001300 -0.22435502970297
 6  10.11620251325133 -0.44501159945995 -0.91852824722472
 6  10.10087727392739 -1.80998033293329 -1.48656031753175
 6  11.39499061616162 -0.17051794239424  0.02649284798480
 6  12.68524569356936 -0.43977049294929 -0.71739227902790
 6  13.89840552835284 -0.02146891009101  0.12953016601660
 6  15.23668901290129 -0.12138475017502 -0.51200425072507
 6  15.63046714891489 -1.69075186098610 -0.84767204700470
 6  16.43789704370437  0.32681706780678  0.40085927062706
 6  17.84693039733974  0.44296242204220 -0.18423670357036
 6  18.74010941044105  1.24896674347435  0.72702506420642
 6  20.23193087288729  1.28392413701370  0.25317492109211
 6  20.49619984888489  1.92050769876988 -1.14012983438344
 6  21.14327220132013  1.69734410381038  1.42515921752175
 1 -4.06569682818282  3.65850423212321  1.34682920392039
 1 -10.01165491719172  4.03382096599660 -0.66909121172117
 1 -10.16914617641764 -2.64641469616962 -1.03883743124312
 1 -2.63457214791479 -0.95807547124712  2.19136637523752
 1 -2.31536117411741  1.83574206280628  1.12735710221022
 1 -1.95464918821882  1.13924941394139  3.50797101050105
 1 -3.08670345654565  2.29054851145115  3.62432700020002
 1 -3.68016899809981  0.55901026872687  3.67795167966797
 1 -1.98478100500050 -1.47086300670067 -0.25728071407141
 1 -2.16384058625863  0.08287037833783 -0.68341344294429
 1 -0.39884697869787  0.57632555605561  1.02357460936094
 1 -0.32733868756876 -1.10220319571957  1.48010088598860
 1 -4.97004917261726  6.31712688778878  0.37718950115011
 1 -6.20754542484248  6.65977577637764  2.00974566376638
 1 -4.47922115091509  5.43885905730573  1.91846552525253
 1 -9.79864736363636  5.88306124222422  0.12414025852585
 1 -8.82947358775877  8.24269285878588  0.00766135943594
 1 -7.18110314691469  7.54217478667867  0.02125765516552
 1 -12.01646705950595  2.97082438773877 -2.31456775517552
 1 -13.10838605210521  1.83460909900990 -1.61124464816482
 1 -12.49438640004001  3.08521160656066 -0.51472297029703
 1 -12.60528305640564 -1.57068946714671 -1.13302351025102
 1 -13.31556756035604 -0.03010682368237 -1.64053141014101
 1 -13.46762722892289 -1.59390062926293 -3.49135213291329
 1 -12.26355652965297 -0.30516924282428 -3.98413598859886
 1 -11.64672802040204 -1.92235517951795 -3.54092320782078
 1 -8.76878777467747 -4.80045289358936 -1.83968154955496
 1 -8.01047474847485 -5.72796290449045 -0.73361758985899
 1 -9.44431659745974 -5.05720250725073 -0.21972022822282
 1 -3.28942907490749 -3.36688827332733 -0.22219887288729
 1 -1.43883497349735 -4.66774515181518  3.39011569856986
 1 -3.07853304070407 -5.36539718211821  3.60740796289629
 1 -1.70606203270327 -6.22397657475748  2.57889459235924
 1  2.74682935403540 -1.74630432033203 -1.35955003130313
 1  2.49021072127213 -0.13590067166717 -1.88239025882588
 1  4.26969619391939 -0.89959796599660  0.34358673487349
 1  3.87559849614961  1.16720781708171 -2.55468881118112
 1  5.44850814921492  2.43617800800080 -2.09235358995900
 1  5.55791111391139  0.87151748194819 -3.18906020532053
 1  6.71272429572957  1.47214344204420 -0.13865636793679
 1  6.46428977697770  0.05693244434443  0.68239924702470
 1  7.42076581868187 -1.19437050875088 -1.22365649434943
 1  7.82284381538154  0.47952482898290 -1.99682982988299
 1  9.01746784398440  1.10839345584558  0.06650061256126
 1  8.49678750155016 -0.61573992939294  0.64829944854485
 1  10.27566927842784  0.53711847814781 -1.66349017961796
 1  9.15488198459846 -1.82541958625863 -2.23453841504150
 1  11.07375045974598 -2.20241675427543 -1.93707989398940
 1  10.14297177077708 -2.50084170677068 -0.53495558625863
 1  11.19081384358436  0.70744515201520  0.31846380978098
 1  11.47233764346435 -0.77394973307331  0.79575704870487
 1  12.89524526022602 -1.46410327172717 -0.99139747464746
 1  12.44764367036704  0.28836831583158 -1.45406377017702
 1  13.82976447964796  0.86146940244024  0.60429709020902
 1  13.94619070937094 -0.77981041834183  1.01208637833783
 1  15.36680907300730  0.38267812821282 -1.52721238073807
 1  15.56841884288429 -2.26404313021302  0.19346174857486
 1  14.86257378917892 -1.98555674927493 -1.60103782418242
 1  16.65079313791379 -1.97813174177418 -1.37408951775178
 1  16.10015522522252  1.41466053875388  0.57704112511251
 1  16.55900760276028 -0.19337573327333  1.45657858955896
 1  18.56361555345535 -0.41847881168117 -0.13378938653865
 1  17.85608568976898  0.73573483198320 -1.34545802970297
 1  18.34434311711171  2.28470036963696  1.17404250515052
 1  18.78058433583358  0.84727833913391  1.65427177877788
 1  20.53733380008001  0.34359079487949  0.18975672607261
 1  20.06180301360136  2.94009299419942 -1.19410968046805
 1  21.51898801270127  1.93617949584959 -1.29662091609161
 1  20.17287812101210  1.40236163846385 -2.05554597789779
 1  21.02254226952695  1.10758006180618  2.30882032363236
 1  22.18762340284028  1.45329386058606  1.04352861906191
 1  21.18150068266827  2.68660233643364  1.69894582578258

