%nproc=4
%Mem=2GB
# td=(NStates=1) CAM-B3LYP/6-31G(d,p) 

TD

0 1
12 -7.18165983528353  0.55070331103110  0.10176822542254
 6 -4.82797167826783 -1.99103121442144  0.51039667456746
 6 -4.87580688698870  2.79263359065907  1.16185964316432
 6 -9.41416600540054  3.02726512591259 -0.38296962996300
 6 -9.53265429302930 -1.70952112711271 -0.96107422242224
 7 -5.07319010061006  0.45384664516452  0.72080960136014
 6 -4.36867447274727 -0.65010563096310  0.78808071087109
 6 -2.90549151035104 -0.40949622172217  1.28398383958396
 6 -3.00493078227823  1.11022215471547  1.70163296969697
 6 -4.42306039273927  1.50131051145115  1.29792605380538
 6 -2.99094688568857  1.13576006330633  3.26224975107511
 6 -1.93163744464446 -0.68107211731173  0.15701502730273
 6 -0.46469472347235 -0.33108133953395  0.65983456635664
 6  0.58765814421442 -0.57426085818582 -0.54757640944094
 8  0.30252080178018 -0.96574797859786 -1.66138541884188
 8  1.88069509450945 -0.18841374817482 -0.21637585768577
 7 -7.22298990749075  2.55298670597060  0.42374753155316
 6 -6.10792792379238  3.26658761266127  0.89269725372537
 6 -6.42528051775178  4.74238486888689  0.82497026152615
 6 -7.70604119951995  4.76245613231323  0.45953286028603
 6 -8.23671422462246  3.47226751805181  0.09196953615362
 6 -5.58093387458746  5.87772886418642  1.38929545474547
 6 -8.57535674807481  5.99793486148615  0.17724774667467
 6 -8.11299049684968  7.27091317561756  0.11447718541854
 7 -9.16695173087309  0.63155963426343 -0.57833953925393
 6 -9.92626428542854  1.73553423602360 -0.70152527672767
 6 -11.26006074897490  1.37305829622962 -1.08231298089809
 6 -11.36150467116712  0.04339821712171 -1.15819508570857
 6 -10.04160404410441 -0.41401989008901 -0.87215651855186
 6 -12.29187742984299  2.44686696759676 -1.25754628552855
 6 -12.45362540824082 -0.82900396259626 -1.80087526472647
 6 -12.22831916391639 -1.06138002320232 -3.28009611501150
 7 -7.15809206130613 -1.43882324392439 -0.33035615431543
 6 -8.21957718001800 -2.20582652215222 -0.70556836273627
 6 -7.74517218471847 -3.62674685758576 -0.63300172917292
 6 -6.42812833483348 -3.58417273277328 -0.12847533963396
 6 -6.16215099329933 -2.19002515701570  0.01703332473247
 6 -8.61647199189919 -4.79054187308731 -0.85297484448445
 6 -5.22845938363836 -4.37569355465547  0.18386688658866
 8 -5.08435979777978 -5.60100275387539  0.25962199699970
 6 -4.13348675867587 -3.32205513961396  0.56159705170517
 6 -3.54557892209221 -3.69333541814181  1.93581476117612
 8 -3.84567822242224 -3.09290252305230  2.95878959425943
 8 -2.71602295019502 -4.73314146664666  1.82988107610761
 6 -2.22205484398440 -5.23398386768677  3.03743508050805
 6  2.83857763436344 -0.43565282298230 -1.18378375327533
 6  4.14215753815382 -0.37337118651865 -0.60781331003100
 6  5.11719532693269  0.36747007150715 -1.00640054025403
 6  5.03025044164416  1.21189572587259 -2.14417150825083
 6  6.41409786738674  0.41460026692669 -0.33286997319732
 6  7.60930866976698 -0.00483236513651 -1.01062073077308
 6  8.91174025642564 -0.02758249174917 -0.16761935613561
 6  10.18952984598460 -0.48218531683168 -0.92978937333733
 6  10.12524971117112 -1.90497983288329 -1.50892255375538
 6  11.41213233033303 -0.23655454605461  0.08455865456546
 6  12.82633980298030 -0.48307482338234 -0.57644818461846
 6  13.96245193299330 -0.11935869906991  0.24892210521052
 6  15.32988833283328 -0.30665327702770 -0.41659470977098
 6  15.67726182838284 -1.78441122692269 -0.76375365516552
 6  16.40927418141814  0.33752813891389  0.45419460416042
 6  17.80749645394539  0.39510763656366 -0.23635191509151
 6  18.80411581108111  1.14487633443344  0.71606396809681
 6  20.19273695349535  1.37690343494349  0.11412101570157
 6  20.36870709960996  2.15270091809181 -1.15127094849485
 6  21.15230310441044  1.81377574697470  1.29472617421742
 1 -4.12344260276028  3.56725510721072  1.38315283628363
 1 -10.15330908260826  3.92341992589259 -0.60315461806181
 1 -10.19306856865686 -2.38676873157316 -1.24824837233723
 1 -2.73795248594859 -1.05876554025403  2.05701293989399
 1 -2.29914955295530  1.72378086668667  1.30524489098910
 1 -1.87171089438944  0.94825031403140  3.55764597799780
 1 -2.96194098029803  2.23843329992999  3.60596516401640
 1 -3.68775975717572  0.38011237893789  3.73313719821982
 1 -2.01485401230123 -1.72853877427743 -0.17983296929693
 1 -2.13803800600060 -0.21393930263026 -0.94782988458846
 1 -0.43146024002400  0.79164708820882  1.03997624952495
 1 -0.24855080878088 -0.98471144654465  1.44287716361636
 1 -4.81614378207821  6.44888006310631  0.63373515571557
 1 -6.19188385868587  6.56579637843784  1.83646833603360
 1 -4.86149937873787  5.56894206560656  2.33117679637964
 1 -9.71660915981598  5.74600753685369  0.06322416691669
 1 -8.82709334973497  8.08279686918692 -0.09162856955696
 1 -7.17610264686469  7.48163873307331  0.22630816021602
 1 -12.16824223702370  3.45999330463046 -1.75471176957696
 1 -13.22521773527353  2.04250988908891 -1.56689021272127
 1 -12.58461542294230  2.68744182958296 -0.08317981598160
 1 -12.70598312641264 -1.78593099129913 -1.18653886178618
 1 -13.28609461306131 -0.14144795779578 -1.92915027202720
 1 -13.02629309550955 -1.63818505770577 -3.73032603030303
 1 -12.38067824182418 -0.17423614951495 -3.91539911491149
 1 -11.27454080168017 -1.36655959996000 -3.40110922642264
 1 -8.60696159205921 -5.06709955825583 -2.03226080748075
 1 -7.91936563756376 -5.56931703990399 -0.61304553265327
 1 -9.47451961776177 -4.72182896989699 -0.18307656385639
 1 -3.36877700970097 -3.32486407090709 -0.14905155815582
 1 -1.76609769976998 -4.50020839813981  3.70666735373537
 1 -2.80358554595460 -5.68851949434943  3.84789201130113
 1 -1.53954538103810 -6.02259643674367  2.78303500640064
 1  2.49910458155816 -1.34520421032103 -1.76412048834884
 1  2.58608030823082  0.28324124252425 -2.06026804660466
 1  4.22262148644865 -0.87375538173817  0.41329370557056
 1  4.09138007430743  1.41850294659466 -2.46400974327433
 1  5.41784508290829  2.24388877907791 -1.95056941154115
 1  5.57734305710571  0.81111144134413 -2.95492679197920
 1  6.58064108740874  1.43839006670667  0.28837633533353
 1  6.31394474247425 -0.12379562846285  0.40968197529753
 1  7.32724646674668 -0.97100817251725 -1.49539366806681
 1  7.73008453945395  0.67033390989099 -1.90143028992899
 1  9.15293139033903  0.98282089858986  0.22408637113711
 1  8.69729755255526 -0.68142649804980  0.59805442404240
 1  10.11603331483148  0.23335810211021 -1.70477430803080
 1  9.40617711411141 -1.82702974727473 -2.35566052725273
 1  11.10461354605460 -2.03201971457146 -2.17599378537854
 1  10.06256372997300 -2.67492911551155 -0.60615270597060
 1  11.31208597079708  0.90031443894389  0.37043900730073
 1  11.22559296899690 -0.69949228732873  1.03854132713271
 1  12.85042077777778 -1.55024188558856 -0.80009834473447
 1  13.01285019101910  0.00535001400140 -1.64103246704670
 1  14.00377188038804  1.02405566106611  0.63792045254525
 1  13.93693978427843 -0.77439987728773  1.12942811251125
 1  15.45290768286829  0.15138499889989 -1.47564722422242
 1  15.46810881188119 -2.55999272517252  0.20762316471647
 1  14.83867139893989 -2.12805099869987 -1.43765148554855
 1  16.55121317991799 -2.06933086168617 -1.44745685448545
 1  16.14853006270627  1.39062813551355  0.53313673467347
 1  16.41097279927993 -0.22712910861086  1.41979491119112
 1  18.26461565346535 -0.66075303910391 -0.39322533013301
 1  17.54441452265227  0.86974823332333 -1.17010049394940
 1  18.29001768456845  2.06141804140414  0.93547864876488
 1  18.93225950335033  0.48453206450645  1.58493484508451
 1  20.49527959465946  0.49183561936194 -0.38337058665867
 1  20.05177201050105  3.14881386628663 -0.96309657915792
 1  21.38107422132213  2.34152002990299 -1.33941519551955
 1  19.85086591979198  1.69055045734573 -2.03116353965397
 1  20.80629064436444  1.26573587738774  2.14195363696370
 1  22.33657829832983  1.95487401860186  0.96560082628263
 1  20.94743727632763  2.83773744994499  1.31091702290229

