%nproc=4
%Mem=2GB
# td=(NStates=1) CAM-B3LYP/6-31G(d,p) 

TD

0 1
12 -7.13862553185318  0.63375161586159  0.09508755735574
 6 -4.86808568966897 -1.90210232153215  0.54509014391439
 6 -4.83103240954095  2.87403173047305  1.19681313851385
 6 -9.47860244904490  3.05455785518552 -0.23235456845685
 6 -9.47624865246525 -1.76257643264326 -0.94454256925693
 7 -5.08479126072607  0.46730799129913  0.70688820922092
 6 -4.31684929022902 -0.74758537893789  0.84464636743674
 6 -2.93961492269227 -0.39039431153115  1.15639108030803
 6 -3.04597488668867  1.12836396889689  1.60092289868987
 6 -4.35885397209721  1.48974935533553  1.08567482868287
 6 -2.78468625962596  1.37508399569957  3.20699422552255
 6 -1.96424070497050 -0.67733174327433  0.02986231203120
 6 -0.56125437943794 -0.49843807520752  0.53722230513051
 6  0.35763514191419 -0.67754118621862 -0.62577422922292
 8  0.09641019071907 -0.99085048884888 -1.74264354465447
 8  1.65348237323732 -0.49346425322532 -0.25576979707971
 7 -7.16572418091809  2.69046045334533  0.30225538233823
 6 -6.13522065306531  3.36487744164416  0.83147113111311
 6 -6.51019900960096  4.70619124952495  1.00998876337634
 6 -7.85070566596660  4.87319720642064  0.46738364536454
 6 -8.20613116631663  3.46778707000700  0.10758109730973
 6 -5.80758653985399  5.88984007530753  1.45074159935994
 6 -8.73531274367437  6.02933800180018  0.37753777567757
 6 -8.20694989278928  7.23090917521752  0.13444918261826
 7 -9.11263629932993  0.65823230153015 -0.58893059835984
 6 -9.92958461746175  1.67817850045004 -0.63815894009401
 6 -11.22540728362836  1.40787177757776 -1.18109285888589
 6 -11.17486600730073  0.06030990829083 -1.35646491269127
 6 -9.87136702040204 -0.43356184428443 -0.94756405930593
 6 -12.37049529162916  2.36738901980198 -1.27727825872587
 6 -12.31081112681268 -0.76813787598760 -1.82485766296630
 6 -12.14449078107811 -1.00728461366137 -3.28290639603960
 7 -7.14709096119612 -1.33532289388939 -0.23727684638464
 6 -8.09589481178118 -2.17628356785679 -0.65703350925092
 6 -7.74724239173917 -3.63775795869587 -0.45512394139414
 6 -6.46319184118412 -3.49433374887489 -0.14340683278328
 6 -6.13065784398440 -2.14067022152215  0.07220884228423
 6 -8.42143248794880 -4.89434225312531 -0.79557910491049
 6 -5.22637917561756 -4.27887387268727  0.12119061896190
 8 -5.05086644844484 -5.43672632623262  0.11298733353335
 6 -4.14348775877588 -3.33128606270627  0.59521041304130
 6 -3.44254861906191 -3.70521660626063  2.00022120182018
 8 -3.73301695629563 -3.18065129792979  3.07757147244724
 8 -2.68520986888689 -4.83162131463146  1.82544063206321
 6 -2.06212885138514 -5.23783425272527  3.02401373837384
 6  2.70239401600160 -0.67711696939694 -1.12057743264326
 6  4.09092241464147 -0.41625547494749 -0.50730325902590
 6  5.02438604600460  0.35638896339634 -1.00136003620362
 6  4.95656307290729  1.14709924622462 -2.33896098719872
 6  6.36401285888589  0.43948275517552 -0.17686437263726
 6  7.57495523442344 -0.04413629552955 -0.90626029472947
 6  8.84700378277828 -0.05419515301530 -0.15347794199420
 6  10.14666555955596 -0.42145924422442 -0.89130552495250
 6  10.09672685888589 -1.93789312421242 -1.41454311581158
 6  11.41779289638964 -0.19669055965597  0.02098229692969
 6  12.76364353335333 -0.48494501040104 -0.65036557635764
 6  13.99956564436444  0.00914415121512  0.15674288728873
 6  15.39033437743774 -0.10770338203820 -0.49594264456446
 6  15.79537363956396 -1.55739852565257 -0.87204448424842
 6  16.37265051905190  0.46863124922492  0.36301548624862
 6  17.79660536483648  0.46320444624462 -0.08756703660366
 6  18.83807920742074  1.15321716851685  0.79756211791179
 6  20.30080776057606  1.09888563316332  0.21126072967297
 6  20.40209043794379  1.83069871787179 -1.18298411981198
 6  21.20582845694570  1.83073744314431  1.32286898849885
 1 -4.04442470097010  3.71304968666867  1.78676319731973
 1 -10.01573532523252  3.69932751665166 -0.67876217881788
 1 -10.36529579137914 -2.71174122882288 -1.00296384388439
 1 -2.76296498719872 -0.99488915261526  2.07552479107911
 1 -2.34016365436544  1.74632312091209  1.10603496999700
 1 -1.82345606890689  0.90322581158116  3.52874308770877
 1 -2.66686147234723  2.51228068466847  3.21081564906491
 1 -3.60765174637464  1.03129749744975  3.97499138363836
 1 -2.14872739963996 -1.81447736813681 -0.34873985998600
 1 -2.20052425462546 -0.04253216191619 -0.79955505710571
 1 -0.32651974597460  0.46658458195820  0.84517676957696
 1 -0.29922587628763 -1.34531750715072  1.40251312721272
 1 -5.35294746244624  6.53359853495350  0.63022480468047
 1 -6.42860753105311  6.54639443824382  1.96214090329033
 1 -4.91768499729973  5.62014718611861  2.04640831953195
 1 -9.76834433333333  5.93370630673067  0.72689053355336
 1 -8.94742538293829  7.96178476797680  0.39114970827083
 1 -6.95368040464046  7.37511808100810 -0.13104757535754
 1 -12.33042845564557  3.18952625792579 -1.85547184558456
 1 -13.29036424992499  1.89313495159516 -1.50730425412541
 1 -12.60628759015902  2.70698378377838 -0.37446894489449
 1 -12.26716924502450 -1.76845924412441 -1.26706691459146
 1 -13.18681468506851 -0.28130194319432 -1.45598295529553
 1 -13.09132959915991 -1.56084732393239 -3.53958695639564
 1 -12.25870604460446 -0.12970169606961 -3.94510208520852
 1 -11.08292163976398 -1.55049799379938 -3.46109522502250
 1 -8.62876377227723 -5.09557240554055 -2.08965654705471
 1 -7.88355205620562 -5.89692980118012 -0.56970119821982
 1 -9.49349151495149 -4.80231701870187 -0.28397665386539
 1 -3.28108824082408 -3.38879046354636 -0.23421007400740
 1 -1.63817490749075 -4.36079445674567  3.61732841984198
 1 -2.79033422082208 -5.73915455785579  3.70070729282928
 1 -1.35367679417942 -6.06118029512951  2.80779748264827
 1  2.64387905900590 -1.71312100200020 -1.57131120742074
 1  2.49721142134213 -0.01938902050205 -1.86203822362236
 1  4.26648587288729 -0.79226723292329  0.51010338653865
 1  3.92363329962996  1.25144624092409 -2.76732007430743
 1  5.59864316271627  2.19116350655065 -2.11633598819882
 1  5.45806112891289  0.75313564376438 -3.21573287258726
 1  6.45406843014301  1.35666189388939  0.18392589028903
 1  6.07471081908191 -0.13537678657866  0.66887789488949
 1  7.32072581468147 -1.14491556325633 -1.17703183188319
 1  7.75537706870687  0.52663954045405 -1.88755890279028
 1  9.10143624082408  0.87169978647865  0.39263322582258
 1  8.81604942774277 -0.72477083248325  0.76802142074207
 1  10.33392510401040  0.40594536083608 -1.58349217981798
 1  9.34618111451145 -2.23289033333333 -2.27633259445945
 1  11.05520860556056 -2.26425293789379 -1.68883506950695
 1  10.05470294389439 -2.75925754835484 -0.73613570427043
 1  11.32732749494949  0.88991339883988  0.34892685608561
 1  11.38273868356836 -0.81810414851485  0.97731520452045
 1  12.97990372607261 -1.52093895529553 -1.03074140904090
 1  13.06550545654565  0.23889336833683 -1.53220158395840
 1  13.56240774397440  0.96283953945395  0.36496315681568
 1  14.10715680598060 -0.54821725902590  1.13076824652465
 1  15.09950234233423  0.45323518391839 -1.52287194669467
 1  15.74896689768977 -2.03383010891089  0.20880328272827
 1  15.13662119391939 -2.03043123672367 -1.75479319971997
 1  16.69685774437444 -1.60201413001300 -1.36901901070107
 1  16.07005221492149  1.50900997369737  0.80780420142014
 1  16.17198890089009  0.01379498379838  1.36485941764176
 1  18.17434662656266 -0.64974193799380 -0.18631463906391
 1  17.85014509570957  1.08755001350135 -0.94085756965697
 1  18.49030771357136  2.22248414801480  1.07830293119312
 1  18.81190746814681  0.67876148744874  1.85667201880188
 1  20.80872093879388  0.11611804760476  0.24696244664466
 1  19.87083391669167  2.71170015491549 -1.31541181068107
 1  21.50695680958096  2.09781565946595 -1.62380363436344
 1  19.98700953415342  1.08801020332033 -1.92126254955496
 1  21.01933194849485  1.50258956275628  2.40518996059606
 1  22.17596223672367  1.84662319351935  1.05718998519852
 1  21.01469400200020  2.98070174637464  1.23937986918692

