%nproc=4
%Mem=2GB
# td=(NStates=1) CAM-B3LYP/6-31G(d,p) 

TD

0 1
12 -7.11044271357136  0.60096833753375  0.17028507710771
 6 -4.88725760686069 -1.92521463276328  0.45260089498950
 6 -4.69792909920992  2.81797612491249  1.08760221742174
 6 -9.35144973377338  3.01596399579958 -0.37568890189019
 6 -9.50715174277428 -1.83335351035103 -0.95318343334333
 7 -5.12479526112611  0.40996225672567  0.73143066346635
 6 -4.38911651695170 -0.74037465786579  0.82678458125813
 6 -2.91159212041204 -0.39911518361836  1.24660010121012
 6 -3.03322361156116  1.09086021852185  1.68983178957896
 6 -4.29393748044804  1.54306468686869  1.06912317351735
 6 -3.04781257225723  1.12203869116912  3.23964749084908
 6 -1.87097137803780 -0.43081709180918 -0.01001167536754
 6 -0.44063231723172 -0.32093032443244  0.45342392529253
 6  0.51502088048805 -0.70754418651865 -0.66509816161616
 8  0.21143169286929 -1.13406481028103 -1.81519079937994
 8  1.74544156915692 -0.39389429622962 -0.33275749584959
 7 -7.09935754425443  2.59734114141414  0.42874803160316
 6 -6.01424855585559  3.40502145604560  0.78845682968297
 6 -6.41339932963296  4.78993962436244  0.84069183368337
 6 -7.71708230363036  4.81518140484048  0.40406731373137
 6 -8.17299785298530  3.44928521982198  0.14735507470747
 6 -5.62362814401440  5.78520961226123  1.42004853005301
 6 -8.58996820922092  5.93169823782378  0.34702472437244
 6 -8.20417961576157  7.29569565386539  0.37078281598160
 7 -9.11118615431543  0.65631210951095 -0.57312901820182
 6 -9.89984164316432  1.78348903150315 -0.71965708990899
 6 -11.18051279417942  1.40846183658366 -1.15772052165216
 6 -11.19551807250725  0.05798967626763 -1.27226649284928
 6 -9.90650053375338 -0.42294078217822 -0.89751905480548
 6 -12.23921216331633  2.50770305120512 -1.31437196809681
 6 -12.35380542624262 -0.81499256145615 -1.75674085128513
 6 -12.34021035303530 -1.15546943214321 -3.33368147354736
 7 -7.30951720382038 -1.42775213681368 -0.10274339303930
 6 -8.32171739403941 -2.32653859335934 -0.48556636253625
 6 -7.76078374587459 -3.65178936183618 -0.39901833083308
 6 -6.50488601060106 -3.59554386988699  0.03750125802580
 6 -6.18773355155516 -2.23696985148515  0.09108072947295
 6 -8.57584792949295 -4.87074989388939 -0.72006155315532
 6 -5.26238277597760 -4.35876186148615  0.30849934983498
 8 -5.20610197199720 -5.59301195479548  0.31519755455546
 6 -4.16373978397840 -3.28266120022002  0.59996088808881
 6 -3.49385374957496 -3.60103618821882  1.93198437813781
 8 -3.81401505610561 -3.10407364016402  2.98794250955096
 8 -2.61241258915892 -4.60214836733673  1.73410149814982
 6 -2.05662830133013 -5.18112858215822  2.89996133313331
 6  2.76975075167517 -0.59926918461846 -1.30189556445645
 6  4.06093941634163 -0.37291114051405 -0.64614714341434
 6  5.07739134653465  0.43083640814081 -1.15341524172417
 6  5.00136755335534  1.26561109740974 -2.34980207130713
 6  6.31443790139014  0.49923873077308 -0.41630831703170
 6  7.59630736963696 -0.18700058195820 -1.02167183588359
 6  8.80536961936194 -0.09869960346035 -0.20606320052005
 6  10.15354624762476 -0.52444954325433 -0.94226062046205
 6  10.04999218541854 -2.02896223112311 -1.35602726422642
 6  11.31186230333033 -0.25592648324832 -0.08703850515051
 6  12.70655782478248 -0.35012152805281 -0.73483402320232
 6  13.83028871667167  0.08728196499650  0.17427464046405
 6  15.29032437643764 -0.12302491419142 -0.49853290359036
 6  15.63336743894389 -1.57894067986799 -0.91849912971297
 6  16.40394364836483  0.45880026612661  0.45233441814181
 6  17.79803550785078  0.52523064886489 -0.09915819571957
 6  18.93483888338834  0.97565941274127  0.89655201690169
 6  20.40571825162516  1.13498924352435  0.34995459905991
 6  20.44160438933893  2.04278992699270 -0.91581740314031
 6  21.24254212831283  1.84889925932593  1.40989769136914
 1 -4.00373063156316  3.68234661636164  1.11705622662266
 1 -10.06472022372237  3.76584416831683 -0.74173847644764
 1 -10.22616187798780 -2.47256731143114 -1.36719026652665
 1 -2.65829452015201 -0.89091875557556  2.08906614521452
 1 -2.18732837083708  1.57229571817182  1.19457382388239
 1 -1.85226895019502  0.96445193419342  3.53987420082008
 1 -3.39535432163216  2.25365482208221  3.66456102360236
 1 -3.71069205040504  0.27512187988799  3.66804068856886
 1 -2.12691521842184 -1.43047896829683 -0.35179016501650
 1 -2.13959816201620  0.27179927122712 -0.78491359295930
 1 -0.29689678367837  0.81120904440444  0.79719197109711
 1 -0.32672862656266 -0.89755273067307  1.29556243214321
 1 -4.63230539823982  6.03506868196820  0.86993877607761
 1 -6.04045871617162  6.94801460026003  1.56739142834283
 1 -5.23355658445845  5.62146731813181  2.57018069676968
 1 -9.61426892579258  5.76503944004400  0.56412425692569
 1 -8.76383702410241  8.30963955345534  0.29957055035504
 1 -7.19130416701670  7.49256982618262  0.32069759915992
 1 -12.15038045084509  3.03493079837984 -2.48813511191119
 1 -13.59914512801280  2.33775941404140 -1.39293281698170
 1 -12.09474643604361  3.21559464486449 -0.45553705170517
 1 -12.25134766286629 -1.69790218841884 -1.07263747164716
 1 -13.23193919751975 -0.23839765276528 -1.65235259225923
 1 -13.17649811601160 -1.90966220542054 -3.36832983068307
 1 -12.48596877087709 -0.24286301220122 -3.77653522852285
 1 -11.30408375597560 -1.54814775877588 -3.66554567006701
 1 -8.97136803270327 -4.94167701600160 -1.71472905430543
 1 -7.84420812181218 -5.74044415261526 -0.98780300840084
 1 -9.39661182698270 -4.88521530853085  0.09849159295930
 1 -3.47417754975498 -3.57583916841684 -0.11525817881788
 1 -1.59846093609361 -4.46672504980498  3.64401108810881
 1 -2.88527371477148 -5.95585622802280  3.45916313841384
 1 -1.23378480498050 -5.83016719381938  2.52923962686269
 1  2.54164883598360 -1.60649033893389 -1.68632270857086
 1  2.59831153135314  0.13095601400140 -2.19030104990499
 1  4.20528975327533 -0.87925593179318  0.24747712391239
 1  3.97715865216522  1.45701679797980 -2.91415475777578
 1  5.25442874127413  2.43927831803180 -2.18783313791379
 1  5.83905922872287  0.99589992019202 -3.00049134843484
 1  6.67352037533753  1.70964719241924 -0.09028153045305
 1  6.22653600160016  0.17239399049905  0.63709471657166
 1  7.25095883798380 -1.23710478217822 -1.28850297899790
 1  7.88160969196920  0.38036491299130 -2.05485563246325
 1  9.06030212741274  0.97454007050705 -0.05357139463946
 1  8.84537236003600 -0.75305366076608  0.61038565716572
 1  10.09980169166917  0.12935770207021 -1.91351518211821
 1  9.19993649004901 -2.25361240554055 -1.88500346154615
 1  11.10989407410741 -2.17028354095409 -1.88970515651565
 1  9.98251572517252 -2.59886150875087 -0.55423751445145
 1  11.28438320052005  0.87877228472847  0.08279024242424
 1  11.14932534223422 -0.64087642574257  0.99272674567457
 1  12.84901063676368 -1.39310617201720 -0.87942627752775
 1  12.81123002900290  0.24910438943894 -1.78769713351335
 1  13.57812931613161  1.08570182568257  0.37593425392539
 1  13.74432052235223 -0.40202263956396  1.13241841154115
 1  15.13201559365937  0.31588144854486 -1.42553221272127
 1  15.66294829582958 -2.43081980788079 -0.26072366996700
 1  15.03961149294930 -1.76633482708271 -1.87278499889989
 1  16.75472353095310 -1.51338526712671 -1.09169127792779
 1  16.19131434113411  1.53974304700470  0.68687210821082
 1  16.19254095609561 -0.09664606030603  1.46936986868687
 1  18.08415760766077 -0.44872183598360 -0.48425443304330
 1  17.69383946514651  1.18069932843284 -1.02774625852585
 1  18.72712139493949  1.93752565216522  0.91058615951595
 1  18.79154543194319  0.62329594089409  1.89447579917992
 1  20.61336140284028  0.15143157895790  0.11256900730073
 1  20.12497933123312  3.13393237813781 -0.71533180268027
 1  21.48480459435944  2.03570944884488 -1.20515176917692
 1  20.07336817001700  1.61153255555556 -1.82250267356736
 1  21.37575759105911  1.02596189999000  2.35044448604861
 1  22.27617225772577  2.29381791299130  1.18809307550755
 1  20.45772830543054  2.73157683388339  2.02589852105210

