%nproc=4
%Mem=2GB
# td=(NStates=1) CAM-B3LYP/6-31G(d,p) 

TD

0 1
12 -7.13341501080108  0.56309455015502  0.16156420502050
 6 -4.84545342644264 -1.92557466876688  0.52722835773577
 6 -4.80928023432343  2.80991531883188  1.32852630983098
 6 -9.51008559735974  2.99642204160416 -0.25163649664967
 6 -9.53264429202920 -1.73361353635364 -0.74997311231123
 7 -5.15199798139814  0.47409867036704  0.78982650305030
 6 -4.36896450175017 -0.77826844724472  0.78485038783878
 6 -2.91773273447345 -0.35961123322332  1.34263970517052
 6 -3.04461475067507  1.05040617311731  1.70835364176418
 6 -4.35017310401040  1.51963234363436  1.15270153135314
 6 -2.89455724672467  1.18680516781678  3.32580610671067
 6 -1.91153543444344 -0.62318632873287  0.13265259105911
 6 -0.42382063606361 -0.37160539193919  0.55937452035204
 6  0.52992237063706 -0.61476490859086 -0.64804645644564
 8  0.19677022672267 -1.04972637643764 -1.74917419771977
 8  1.71748877387739 -0.29747465426543 -0.27059127922792
 7 -7.16743435193519  2.56976838413841  0.40873603040304
 6 -6.09500663166317  3.38763971787179  0.89168715271527
 6 -6.51504949464947  4.69805043544354  0.90100786528653
 6 -7.77607820322032  4.81597148384839  0.45595250225022
 6 -8.26847740094009  3.45914620592059  0.14713505270527
 6 -5.59878565976598  5.80862195349535  1.19812633783378
 6 -8.64146335873587  5.94588965696570  0.09794981688169
 6 -8.30818001580158  7.24682076637664 -0.09967422972297
 7 -9.14204924062406  0.68050452875288 -0.47911961726173
 6 -9.89857151615161  1.75152583518352 -0.65558068226823
 6 -11.28749349224923  1.45809680008001 -1.04046879647965
 6 -11.29233775447545  0.10126400370037 -1.22596186238624
 6 -9.98903878757876 -0.45783427152715 -0.79813911681168
 6 -12.23759200130013  2.58329060996100 -1.26073660456046
 6 -12.51015106080608 -0.72150321252125 -1.64310948814881
 6 -12.48870520252025 -1.13316720192019 -3.07556566196620
 7 -7.18001425352535 -1.41651101270127 -0.13094621332133
 6 -8.24446966926693 -2.28431437093709 -0.41956976287629
 6 -7.82078974647465 -3.59103328622862 -0.54475290429043
 6 -6.41691721372137 -3.47054136963696 -0.14270676277628
 6 -6.19443422162216 -2.17513366786679  0.06100772217222
 6 -8.67050739543954 -4.80257307620762 -0.74097364436444
 6 -5.26749328702870 -4.26767275257526  0.14810331023102
 8 -5.12015337713771 -5.46295894949495  0.07324335913591
 6 -4.15557896789679 -3.33786672077208  0.49387027902790
 6 -3.43350771497150 -3.64423050765077  1.77339851955195
 8 -3.61342499709971 -3.09352258505851  2.78747246254626
 8 -2.64284563246325 -4.73529168166817  1.56465455345535
 6 -2.06201884038404 -5.27795826512651  2.75673701070107
 6  2.67703147974797 -0.59176843454345 -1.26527190209021
 6  4.07106042844284 -0.40726457585759 -0.69478200690069
 6  5.10916452385239  0.35055838033803 -1.10822072227223
 6  5.16032344894489  1.07234177047705 -2.46651374247425
 6  6.35742219981998  0.42401120802080 -0.28112479867987
 6  7.59195693459346 -0.11770365226523 -1.01559122782278
 6  8.99140822322232 -0.07992772627263 -0.19374196839684
 6  10.23951484448445 -0.52462956125613 -0.95739213361336
 6  10.14570175637564 -1.96906624152415 -1.28289995149515
 6  11.40205132223222 -0.31752264286429 -0.04502430373037
 6  12.79560672967297 -0.57998451435144 -0.75917645744574
 6  13.94706039383938 -0.10272703590359  0.22528974197420
 6  15.44395973997400 -0.19296190789079 -0.53556660696070
 6  15.71702580478048 -1.72275506130613 -0.77073435323532
 6  16.45882913691369  0.44303868996900  0.44985417011701
 6  17.80039574387439  0.44301242704270 -0.08584686458646
 6  18.91881728122812  1.24964681148115  0.88498085978598
 6  20.28635631543154  1.35753149774977  0.39046865046505
 6  20.38983921282128  2.04709035703570 -1.01578740014001
 6  21.14819269336934  2.06152052145215  1.47019372097210
 1 -4.08901916041604  3.56118450015002  1.60833535453545
 1 -10.00366411811181  4.00888847274727 -0.39984428702870
 1 -10.11083034483448 -2.43287334203420 -1.20679422692269
 1 -2.62250094079408 -0.97585724942494  2.12815005360536
 1 -2.27457709570957  1.87104559315932  1.29991435793579
 1 -1.90723444674467  1.02742823182318  3.62476268966897
 1 -3.13698848504851  2.18987844444444  3.46961152865287
 1 -3.69014999619962  0.58162252995300  3.72351623612361
 1 -2.19845237213721 -1.60149607000700 -0.24106909290929
 1 -2.18848305050505 -0.07640554925493 -0.81295639723972
 1 -0.20639773377338  0.66568449194919  1.03972622452245
 1 -0.05701165486549 -1.10423339873987  1.21577445334533
 1 -5.24002617031703  6.37968314341434  0.12501428362836
 1 -6.09048371867187  6.70637043584358  1.89060374957496
 1 -4.67741096989699  5.62590776217622  1.82408608730873
 1 -9.72690018891889  5.79304224032403  0.01936978147815
 1 -9.00431107150715  8.03204179367937 -0.23117252395239
 1 -7.37098213481348  7.62915348454846 -0.09775424602460
 1 -11.72955836863686  3.16506381168117 -2.10341664006401
 1 -13.21309652315231  2.14827046514651 -1.68864238793879
 1 -12.42391935333533  3.24312739813981 -0.34318581658166
 1 -12.47665019311931 -1.90374277247725 -1.07256746464647
 1 -13.49115511911191 -0.36899071207121 -1.16625398239824
 1 -13.35281574777478 -1.75682692189219 -3.38181117881788
 1 -12.43931410541054 -0.33160188608861 -3.85686326132613
 1 -11.68620196779678 -1.49930287428743 -3.31529064456446
 1 -9.15475637153715 -4.83859670797080 -1.78118569997000
 1 -7.92918661966197 -5.68656876507651 -0.51050527862786
 1 -9.50424259005901 -4.81956874387439  0.11076282008201
 1 -3.40821095309531 -3.21109269376938 -0.42708936193619
 1 -1.44689577957796 -4.50863924122412  3.25020170717072
 1 -2.74480966836684 -5.80637127952795  3.52502972507251
 1 -1.30992241874187 -5.97824200130013  2.52169887278728
 1  2.59239391049105 -1.57871756165617 -1.56319039533953
 1  2.43954565476548  0.17219013741374 -1.99357137693769
 1  4.20795001930193 -0.88611661786179  0.30491286748675
 1  4.05768670497050  1.43802489878988 -2.82342568486849
 1  5.63880717911791  2.14785917611761 -2.15204955955596
 1  5.69540486328633  0.44020435063506 -3.28019931923192
 1  6.74508753205321  1.45235146284628  0.04703220092009
 1  6.09503285128513 -0.34869811871187  0.51982298939894
 1  7.36980072217222 -1.13310438213821 -0.95377950665067
 1  7.76972850385039  0.44197107360736 -1.94124427132713
 1  9.08742483968397  1.06359897639764  0.05694965746575
 1  8.75749357215722 -0.39068742414241  0.80193481208121
 1  10.21617332883288  0.09407417371737 -1.93608743934393
 1  9.35364186058606 -2.39788683298330 -1.98237319851985
 1  10.99917300200020 -2.35611212381238 -2.02387857385739
 1  10.02884035763576 -2.57521914451445 -0.36430852155216
 1  11.39769453165317  0.82710711821182  0.16436840024002
 1  11.46131654135413 -0.96875921402140  0.89945741874187
 1  12.79747548324833 -1.72953981538154 -1.00059839473947
 1  12.80999990599060  0.04874435343534 -1.80181854565457
 1  13.61558306150615  0.93055631113111  0.43985064556456
 1  13.81569766006601 -0.87942037933793  0.99087425712571
 1  15.57483987608761  0.32771263166317 -1.50861052055206
 1  15.48965096609661 -2.38794552045204  0.11019342174217
 1  15.06809434123412 -2.06573476707671 -1.45027274767477
 1  16.69225728432843 -1.85453938253825 -1.17197930673067
 1  16.10734594429443  1.49171824452445  0.75424884588459
 1  16.49836153815382 -0.08993538923892  1.33562649434943
 1  18.15503469536954 -0.46387335113511 -0.31625763336334
 1  17.86509659085909  0.74878613711371 -0.99453293719372
 1  18.24100278307831  2.26322822242224  0.78847394829483
 1  18.70544682208221  0.94933854515452  1.79902625422542
 1  20.91678174487448  0.33128956475648  0.43992174257426
 1  20.01198803210321  3.10684966986699 -1.08780905040504
 1  21.40651676557656  2.09929580748075 -1.26549780378038
 1  19.99002983618362  1.15121652395240 -1.80192061536154
 1  21.07947796309631  1.44696400020002  2.34687412901290
 1  22.16243088358836  1.97001553275328  1.12886715291529
 1  20.90223275587559  3.13823749994999  1.66929286048605

