%nproc=4
%Mem=2GB
# td=(NStates=1) CAM-B3LYP/6-31G(d,p) 

TD

0 1
12 -7.14787645694569  0.54363260396040  0.18305635423542
 6 -4.80821970307031 -1.96899901120112  0.54138977387739
 6 -4.87428673497350  2.70022434973497  1.12733619081908
 6 -9.48925351415141  3.12367476687669 -0.24025535853585
 6 -9.54845587318732 -1.78275845084508 -0.81025914091409
 7 -5.01667444904490  0.41865312581258  0.75121264166417
 6 -4.29272687798780 -0.76490711111111  0.80958286108611
 6 -2.92340330153015 -0.42022729482948  1.31531697289729
 6 -3.02112240144014  1.07858899139914  1.68015082148215
 6 -4.34684277097710  1.50294067446745  1.24158041924192
 6 -2.89379717071707  1.20612710001000  3.20034356045605
 6 -1.93932821372137 -0.63392740284028  0.11337066286629
 6 -0.49187744174417 -0.46721495289529  0.63073165606561
 6  0.53777315571557 -0.65062849494950 -0.49712136393639
 8  0.26548709840984 -0.93419482328233 -1.64849412971297
 8  1.76967399239924 -0.58294320112011 -0.07567178727873
 7 -7.10727833633363  2.58773018031803  0.35032018881888
 6 -6.09919705070507  3.40265121902190  0.81017900190019
 6 -6.38925691539154  4.75100573097310  0.72976074057406
 6 -7.71759235463546  4.88764865156516  0.32808971597160
 6 -8.18811936513651  3.47207749904990  0.07479781898190
 6 -5.58203398459846  5.92006309760976  1.26905343054305
 6 -8.56041525392539  6.08116318431843  0.29428945084508
 6 -8.25478467626763  7.35399148344835  0.13868960666067
 7 -9.17277231293129  0.69585606390639 -0.44224592989299
 6 -9.98567022602260  1.79816049864987 -0.59530465466547
 6 -11.28307305020502  1.38529952035204 -1.07449219881988
 6 -11.27666618731873  0.05943982128213 -1.24772403860386
 6 -9.98830871457146 -0.48714720282028 -0.81578088098810
 6 -12.28227646974698  2.44729701060106 -1.56139667056706
 6 -12.33157320302030 -0.78302936513651 -1.84536971417142
 6 -12.03566989898990 -0.96022990819082 -3.34260236563656
 7 -7.27225347744774 -1.28413777537754 -0.12255537423742
 6 -8.23694891719172 -2.20170611011101 -0.56041384728473
 6 -7.89201686918692 -3.60351453435344 -0.43942237123712
 6 -6.53598912091209 -3.52506682218222 -0.03994648674867
 6 -6.12433721192119 -2.12289844434443 -0.01308968756876
 6 -8.65596594129413 -4.93024584348435 -0.70732027902790
 6 -5.39433597129713 -4.32814880018002  0.24753325322532
 8 -5.24986634843484 -5.61277393099310  0.16603263806381
 6 -4.21168457845785 -3.30307324142414  0.47083797579758
 6 -3.49946431063106 -3.64235031963196  1.77531871157116
 8 -3.80490414501450 -3.23410664346435  2.88309202450245
 8 -2.66561790969097 -4.70192834533453  1.70159824782478
 6 -2.19424206270627 -5.35269573887389  2.90168150515052
 6  2.74262803940394 -0.61483074077408 -1.22437781268127
 6  4.06554987738774 -0.34502835223522 -0.61588411711171
 6  5.12892650005000  0.36130945544554 -1.00516041624162
 6  5.10967838443844  1.23320785708571 -2.23502059315932
 6  6.43329978757876  0.45126393329333 -0.11443813001300
 6  7.60641838073807 -0.23728561046105 -0.88386805550555
 6  8.96919600200020 -0.07381711521152 -0.16049864406441
 6  10.20294118711871 -0.48289538783878 -0.80624701910191
 6  10.03628081428143 -2.01025035993599 -1.32978463996400
 6  11.49015013211321 -0.26434732533253 -0.01512131343134
 6  12.84264143314331 -0.49446596249625 -0.79605014481448
 6  14.01421710951095 -0.10670743394339  0.06640385338534
 6  15.37017236123612 -0.08034064576458 -0.55368841914191
 6  15.67251135333533 -1.47805059085909 -1.13787106690669
 6  16.49271252525253  0.46739112521252  0.37623680838084
 6  17.88112381668167  0.51447957375738 -0.24651293119312
 6  18.76130152965296  1.25091693849385  0.81486384808481
 6  20.20485816561656  1.30052579717972  0.32923252685269
 6  20.28631886078608  2.04726037403740 -1.01865768716872
 6  21.11870974507451  1.90337470687069  1.34198089968997
 1 -4.09898015651565  3.35074345604560  1.47968248924892
 1 -10.21802555425542  3.86235381928193 -0.53271757435744
 1 -10.12891215301530 -2.51973202790279 -1.11700524802480
 1 -2.53285197589759 -1.05788545224523  2.20809804840484
 1 -2.28153779177918  1.59333782238224  1.17356172267227
 1 -1.95811953525353  1.02105759475948  3.78123833723372
 1 -3.03422820902090  2.35644510111011  3.46450101760176
 1 -3.73509449064907  0.76264063176318  3.82337622212221
 1 -2.08796132303230 -1.64090001040104 -0.34822980898090
 1 -2.12200640284028  0.02396448774877 -0.81819692129213
 1 -0.48035512951295  0.47900582408241  1.28346059795980
 1 -0.37552350605060 -1.22304527992799  1.18370124602460
 1 -4.93292546024602  6.52520769586959  0.58920070227023
 1 -6.21746641694169  6.59619941874187  1.67299198839884
 1 -4.68305153395340  5.55945111651165  2.12185586428643
 1 -9.51642914181418  5.97874081018102  0.78110595509551
 1 -8.93837447784778  8.12274086358636  0.04530512381238
 1 -7.17121215781578  7.46518708790879 -0.18042251285128
 1 -11.91012642544255  2.77955526082608 -2.53866016441644
 1 -13.33542875637564  1.99910554865487 -1.63955747944794
 1 -12.35516247764776  3.22274535993599 -0.83134463246325
 1 -12.36746927502750 -1.60368276647665 -1.32707291519152
 1 -13.27586358995900 -0.30914472747275 -1.77149450645065
 1 -12.77444791099110 -1.57563880308031 -3.83351634933493
 1 -12.09382955695570  0.06846812091209 -3.87396497149715
 1 -11.11954530213021 -1.35394833883388 -3.55810492599260
 1 -8.69841073697370 -4.97975082338234 -1.79911749314931
 1 -8.25346904790479 -5.94928503670367 -0.15703993209321
 1 -9.84467663346335 -4.65788257525752 -0.32906116231623
 1 -3.16382651465147 -3.20259184368437 -0.09458611161116
 1 -1.44626571657166 -4.67431580888089  3.36175286228623
 1 -3.07888307570757 -5.60863150555055  3.48984620672067
 1 -1.71535296179618 -6.32915709280928  2.50310701360136
 1  2.89617428852885 -1.47961765166517 -1.88411248754876
 1  2.53403510371037  0.16366928532853 -2.09578159795980
 1  4.10952017631763 -0.75370337653765  0.33746612281228
 1  4.05696663296330  1.30564166046605 -2.70002334463446
 1  5.60999429782978  2.17138152835284 -2.03214756935694
 1  5.74269959275928  0.92964329452945 -2.96317761706171
 1  6.82268529182918  1.54075030273027  0.10253775147515
 1  6.35314866286629 -0.12570581948195  0.76777778487849
 1  7.32738648074807 -1.13109418111811 -1.06368049674967
 1  7.53628515951595  0.27344422092209 -1.86131627852785
 1  8.93396949414941  0.94265688218822  0.01966592909291
 1  8.70228805160516 -0.60124848024802  0.79814443304330
 1  10.32621433293329 -0.00119535323532 -1.84444827542754
 1  9.39163565996600 -2.29298634293429 -2.12521748294830
 1  11.16076916161616 -2.26771328392839 -1.50865705170517
 1  9.63262073567357 -2.46655827842784 -0.37275936663666
 1  11.33509827202720  0.86281068856886  0.28311027442744
 1  11.45914632433243 -0.84108644674467  0.89953742674267
 1  13.12914865056506 -1.61408827022702 -0.97240557545755
 1  12.74206311231123  0.06016549554955 -1.86428479227923
 1  13.97842934613461  0.93836709220922  0.43202986348635
 1  14.19810590089009 -0.86752919021902  0.97048221792179
 1  15.27846023812381  0.69878973937394 -1.40831049054905
 1  15.76082808380838 -2.08132485838584 -0.23865146274627
 1  14.77703523532353 -2.05444363796380 -1.73327104750475
 1  16.51442950155016 -1.64638856745675 -1.93645575437544
 1  15.95385059475947  1.28973804650465  0.81202462346235
 1  16.55338704070407 -0.27353374907491  1.26092902460246
 1  18.32632182408241 -0.44041100490049 -0.27170317791779
 1  17.81522160336034  0.99267052555256 -1.13689717361736
 1  18.30248893169317  2.21086298589859  1.00695579647965
 1  18.57315359275927  0.49678328962896  1.52571892349235
 1  20.51375144184418  0.36663309910991  0.17956570697070
 1  19.79228606190619  2.90492947784778 -0.91268153765376
 1  21.44150026392639  2.25248112601260 -0.95403665766577
 1  19.80793162636263  1.60653205550555 -1.91917234053405
 1  20.85557557285729  1.41193049684968  2.31672111371137
 1  22.14015865636564  1.69660819201920  1.08428269446945
 1  20.78400093269327  3.04772844904490  1.45893182438244

