%nproc=4
%Mem=2GB
# td=(NStates=1) CAM-B3LYP/6-31G(d,p) 

TD

0 1
12 -7.18241991129113  0.59324756545655  0.16844489308931
 6 -4.90401928302830 -1.99137124842484  0.54681031593159
 6 -4.82155146144614  2.73774810211021  1.20624408160816
 6 -9.32779736853685  3.11775417481748 -0.35956728972897
 6 -9.62071309890989 -1.68343851885189 -0.91939005400540
 7 -5.13247602920292  0.43293455395540  0.83042056245625
 6 -4.35518312361236 -0.73342396279628  0.91251315411541
 6 -2.88541950315031 -0.46770204230423  1.29552499369937
 6 -3.00866115531553  1.10746187868787  1.69778258465847
 6 -4.36883497019702  1.45038541894189  1.20556681788179
 6 -2.86994478547855  1.24584107140714  3.27821134723472
 6 -1.88061234213421 -0.64816882698270  0.06616594239424
 6 -0.52610086408641 -0.53683191459146  0.49923850675068
 6  0.61464084248425 -0.79548298039804 -0.54932658445845
 8  0.31482203190319 -1.08504990879088 -1.66373565386539
 8  1.87055408040804 -0.65226013281328 -0.08677289738974
 7 -7.10564817331733  2.62574398169817  0.25437059385939
 6 -6.04410154115412  3.30908186208621  0.78458644264426
 6 -6.34659264896490  4.80102073247325  0.78752651715172
 6 -7.62525312071207  4.88129801650165  0.46927383438344
 6 -8.08233878707871  3.48571886318632  0.12116245544554
 6 -5.46785256645665  5.88325941724172  1.35303182838284
 6 -8.48221743414341  6.08846391439144  0.09106912881288
 6 -8.14495369316932  7.30622670697070 -0.02635689798980
 7 -9.17615265096510  0.62108858715872 -0.38271997729773
 6 -9.83051471047105  1.78346902950295 -0.58830395459546
 6 -11.23684842774277  1.52017300770077 -1.08727347694769
 6 -11.26846536723672  0.09815369266927 -1.16443570977098
 6 -9.99477936163616 -0.39047753585359 -0.83479278217822
 6 -12.16483472557256  2.56883916481648 -1.47734826572657
 6 -12.49456950265026 -0.69010007220722 -1.72636781398140
 6 -12.20829716171617 -1.17870175537554 -3.16392449784979
 7 -7.29991624372437 -1.40191955355536 -0.19138225692569
 6 -8.39123434573457 -2.29494543404340 -0.55192299819982
 6 -7.88730639813981 -3.59793397629763 -0.49589801880188
 6 -6.57327284928493 -3.54156847234723 -0.13402589468947
 6 -6.22168694689469 -2.11879803430343  0.03975559695970
 6 -8.61362170687069 -4.82514533343334 -0.84634418141814
 6 -5.35136167386739 -4.30341632693269  0.18217671757176
 8 -5.21683304510451 -5.56738939253925  0.22176821162116
 6 -4.25542895289529 -3.31219415351535  0.45757664966497
 6 -3.51823618781878 -3.66689277387739  1.74327550725073
 8 -3.74048770337034 -3.19914314711471  2.89638335363536
 8 -2.63883523142314 -4.61877002950295  1.43821190919092
 6 -2.16974961346135 -5.31949241854185  2.74052538953895
 6  2.83448722532253 -0.65802506020602 -1.10089546444644
 6  4.16414973737374 -0.56204005340534 -0.49734226292629
 6  5.01982558995900  0.32454577907791 -0.91275117531753
 6  4.99477689428943  1.16159069536954 -2.18444553565357
 6  6.38567502510251  0.48673748064806 -0.18203488968897
 6  7.66687442634263 -0.00903278517852 -0.85664533323332
 6  8.91045012741274 -0.03088282178218  0.04364176997700
 6  10.12704359735974 -0.50564766306631 -0.70114650905090
 6  10.05135232143214 -1.94899423432343 -1.13632529402940
 6  11.40011112821282 -0.30249113971397  0.12750294899490
 6  12.73469063806380 -0.56594311021102 -0.65711625142514
 6  14.00828651645165 -0.21164792799280  0.30024723772377
 6  15.34591993599360 -0.13412602430243 -0.53932698299830
 6  15.69475357755776 -1.58545133093309 -1.07025430523052
 6  16.46229948394839  0.31011539763976  0.42777196189619
 6  17.80260596489649  0.53561168696870 -0.30463874377438
 6  18.77524292379238  1.33070491729173  0.61382374407441
 6  20.18470615041504  1.39345509010901  0.14056365996600
 6  20.29828005690569  2.26103175117512 -1.15970179157916
 6  21.03249112321232  2.05956032543254  1.21028773037304
 1 -3.97873813231323  3.35842422412241  1.44344886588659
 1 -10.23727747944795  3.84252183608361 -0.44518882148215
 1 -10.21568082988299 -2.35584563926393 -1.27199074657466
 1 -2.71376006670667 -1.10153981768177  2.05783302190219
 1 -2.14293393139314  1.61644013261326  1.17844221072107
 1 -1.77980170347035  0.90580606960696  3.64139435283528
 1 -2.96950173637364  2.23249270587059  3.82189675717572
 1 -3.83291427262726  0.59898426612661  3.64604848934894
 1 -2.17948047494749 -1.54587050745074 -0.54317930393039
 1 -1.83431763396340  0.33252534383438 -0.59795489708971
 1 -0.36980407440744  0.45471339483948  0.79528178007801
 1 -0.34294024772477 -1.20493346874687  1.39848272417242
 1 -4.73268543624362  6.15386056115612  0.59144092629263
 1 -6.01216588688869  6.64147394619462  1.51274596379638
 1 -5.06815004380438  5.73738891029103  2.37206088478848
 1 -9.49947744664466  5.56271920802080 -0.02413456895690
 1 -8.88472911331133  8.18161675117512 -0.32216162286229
 1 -6.96190122672267  7.62925349454946 -0.00404487508751
 1 -11.90085549834983  3.10302760806081 -2.33158945734573
 1 -13.23812902640264  2.16525216331633 -1.80171369506951
 1 -12.40478744014401  3.46004909030903 -0.86937843584358
 1 -12.61514404250425 -1.60153255145515 -0.99143935183518
 1 -13.26849285288529 -0.09031284428443 -1.54727208420842
 1 -12.93629409560956 -1.89593083228323 -3.44313731143114
 1 -12.23197337133714 -0.20021874777478 -3.91268884388439
 1 -11.26746009360936 -1.69153209720972 -3.22394150965096
 1 -9.03224412031203 -4.85908875717572 -1.89599718111811
 1 -7.91019472047205 -5.80612072027203 -0.75748997709771
 1 -9.39718188398840 -4.87417420442044 -0.28927718391839
 1 -3.52602273427343 -3.36699828432843 -0.28534518751875
 1 -1.68336942694269 -4.52942131943194  3.61748843584358
 1 -3.11443663106311 -5.63048369076908  3.05627284938494
 1 -1.56004743124312 -6.17326150325033  2.28409511241124
 1  3.07007167826783 -1.58162785268527 -1.76488056435644
 1  2.43704540474047  0.11466438483848 -1.84082610241024
 1  4.31325054935494 -1.21382938913891  0.34238661486149
 1  4.12874381068107  1.36922801910191 -2.65532887518752
 1  5.43888718711871  2.17882227242724 -1.87566192079208
 1  5.46910223302330  0.79325965616562 -3.10530182948295
 1  6.38820184348435  1.43065929362936  0.10944844254425
 1  6.24566791479148 -0.11396464536454  0.73703471057106
 1  7.35083882598260 -1.03135420712071 -1.10432456115612
 1  7.87432896389639  0.67629450595059 -1.56433658055806
 1  9.10865696289629  0.94540715721572  0.40357431993199
 1  8.66402422522252 -0.76557491289129  0.93069768836884
 1  10.41113282478248  0.06491125742574 -1.66915074567457
 1  9.06148264466447 -2.02395944024402 -1.75646060726073
 1  11.03779686438644 -2.13155966856686 -1.74939112511251
 1  10.25998347194719 -2.69592121472147 -0.23734582528253
 1  11.36654141634163  0.76527093459346  0.48462042544254
 1  11.68818922862286 -1.01625396349635  1.05970344334433
 1  12.93725946164616 -1.64369123052305 -1.06698503340334
 1  12.54671357735774  0.15348482748275 -1.48011637543754
 1  13.72690419361936  0.66297955345535  0.67463412391239
 1  13.94353044334433 -0.86583902120212  1.14553972367237
 1  15.07987037913791  0.68179804020402 -1.28384804430443
 1  15.66862886388639 -2.44722144804480 -0.38332593019302
 1  14.95455298709871 -1.95982417601760 -1.75325304570457
 1  16.72837089568957 -1.64095802440244 -1.62135424422442
 1  15.91889709940994  1.24471354405441  0.92820624162416
 1  16.54995669766977 -0.46683307900790  1.14892782448245
 1  18.25917510941094 -0.37365432923292 -0.65768177577758
 1  17.52110219141914  1.15247650615062 -1.17692117601760
 1  18.38677736053605  2.30259215881588  1.13922902380238
 1  18.86563284068407  0.76633024432443  1.61355770737074
 1  20.77681774847484  0.55222165796580 -0.28329057865787
 1  20.22777961126113  3.37748673357336 -0.77607787728773
 1  21.26241235513551  2.30556643454345 -1.57445869986999
 1  19.53501433463346  1.97017842014201 -1.77811823512351
 1  21.18243825912591  1.44577388118812  2.02853229482948
 1  22.10042468296830  2.13196172737274  0.78295256145615
 1  20.70254278687869  3.02798647484748  1.57117304850485

