%nproc=4
%Mem=2GB
# td=(NStates=1) CAM-B3LYP/6-31G(d,p) 

TD

0 1
12 -7.14785645494549  0.57125536623662 -0.01237318871887
 6 -4.77914679577958 -1.92873498479848  0.60278591349135
 6 -4.84125343164316  2.82718704600460  1.18365182238224
 6 -9.51106569536954  3.07626002540254 -0.28364969796980
 6 -9.50370139773977 -1.82158233323332 -0.84506262126213
 7 -5.07662044364436  0.44768602910291  0.77397491789179
 6 -4.29057666296630 -0.67782840324032  0.79960186298630
 6 -2.88307926912691 -0.35958123022302  1.24961040224022
 6 -2.92896318551855  1.14722585508551  1.68599140554055
 6 -4.34797288398840  1.46959734013401  1.15553181438144
 6 -2.84151194219422  1.28997548484849  3.14137766386639
 6 -2.03375765666567 -0.65424943504350  0.07939726552655
 6 -0.53318157215722 -0.52218044944494  0.51343992689269
 6  0.53622300070007 -0.54551798389839 -0.64670632243224
 8  0.21982253195320 -0.64957636143614 -1.74069334963496
 8  1.77269429442944 -0.44463937073707 -0.15591981208121
 7 -7.06348395689569  2.58931033833383  0.33769892669267
 6 -6.13867099809981  3.36168712261226  0.80487847184718
 6 -6.45216320602060  4.79076970737074  0.89140690519052
 6 -7.85188578397840  4.80234012071207  0.42181908890889
 6 -8.20245079827983  3.38267855915592  0.21079141834183
 6 -5.60202598379838  5.91687277857786  1.21388791399140
 6 -8.71825103750375  6.03746881488149  0.41153117501750
 6 -8.23052225002500  7.22882896719672 -0.06587084938494
 7 -9.12432746844684  0.72236871517152 -0.49907161246125
 6 -9.93397505650565  1.76911759435944 -0.66510163436344
 6 -11.13774851775178  1.47598858925893 -1.11538628822882
 6 -11.27366588728873  0.05933981128113 -1.18916818301830
 6 -9.89697958165817 -0.44282277037704 -0.78941824472447
 6 -12.37805604770477  2.41840412131213 -1.37844837573757
 6 -12.53306335203520 -0.82357341954195 -1.62198737593759
 6 -12.54176050805081 -1.20963484868487 -3.14909301470147
 7 -7.21068732083208 -1.41667102870287 -0.27446056475648
 6 -8.19509473177318 -2.23015895539554 -0.67490529642964
 6 -7.76871453895389 -3.58974315721572 -0.63869229822982
 6 -6.39315483748375 -3.49216353185319 -0.12938543064306
 6 -6.17641241944194 -2.21189734423442  0.06831845324532
 6 -8.50117046174617 -4.75739855875588 -0.91975152215222
 6 -5.24837137483748 -4.35236122142214  0.21178967886789
 8 -5.13273463526353 -5.50506315991599  0.28628466326633
 6 -4.07529093909391 -3.27653058715872  0.52540343234323
 6 -3.51521588578858 -3.65490157475748  1.84581576127613
 8 -3.71350500510051 -3.22976620942094  2.97171088638864
 8 -2.65024637253725 -4.65210336283628  1.71692978097810
 6 -2.03377601610161 -5.16759722902290  2.87527886488649
 6  2.73168694529453 -0.64736399409941 -1.10588596349635
 6  4.09834315671567 -0.50876472587259 -0.51245377407741
 6  5.07782138953895  0.30204352885289 -0.88899880008001
 6  5.03574099069907  1.27012154845485 -2.06381347244724
 6  6.43977043464346  0.34205301220122 -0.22314900110011
 6  7.70877861676168 -0.20739262116212 -0.92895256395640
 6  8.91381046344634 -0.06224595809581 -0.06945954015402
 6  10.12526341934193 -0.57705480378038 -0.80726712111211
 6  10.06074326052605 -1.93786312121212 -1.34196585808581
 6  11.36095721282128 -0.25505639623962 -0.06201600290029
 6  12.74718188718872 -0.40472698859886 -0.83439397919792
 6  13.98416410421042 -0.08818558175818  0.10385759875988
 6  15.35468081208121 -0.22290490219022 -0.54098714901490
 6  15.58016211841184 -1.74626741254125 -0.87880516031603
 6  16.45323857785779  0.28104249034903  0.42178136283628
 6  17.85090079437944  0.47761588738874 -0.32565084498450
 6  18.83045844534454  1.09748159495950  0.73442580428043
 6  20.30216789658966  1.38533427802780  0.19623922752275
 6  20.25645587448745  2.26449209720972 -0.95022084348435
 6  21.24157203130313  1.86940130953095  1.44919162076208
 1 -4.12008226672667  3.46429481118112  1.61732625362536
 1 -10.20904465616562  3.89103668756876 -0.59813411601160
 1 -10.17804706650665 -2.57137719241924 -0.99384293179318
 1 -2.77492618331833 -1.03815347904790  2.20805804440444
 1 -1.98430806880688  1.78607709630963  1.40048441494149
 1 -1.97459118241824  0.86300178917892  3.51511172457246
 1 -2.87449223542354  2.15337479407941  3.63137770527053
 1 -3.77126810801080  0.64867923562356  3.57612149664966
 1 -2.13924645154515 -1.66458237863786 -0.35218020402040
 1 -2.17799200140014 -0.00194810351035 -0.68581368296830
 1 -0.61555864986499  0.62340026352635  1.07956020792079
 1 -0.21114706840684 -1.33385636103610  1.23236611251125
 1 -4.62979514721472  6.11465664076408  0.57565934813481
 1 -6.03620829112911  6.87768756755676  1.29937462666267
 1 -4.67037026582658  5.73796896829683  1.88217189588959
 1 -9.92975047394739  5.83529646574658  0.56731457595760
 1 -8.88700934133413  8.06739532903290 -0.04424383108311
 1 -7.18988402500250  7.27035760496050 -0.26263073367337
 1 -12.38573398619862  2.97178448374837 -2.32131843024302
 1 -13.37272248574857  1.85907154525452 -1.44139766346635
 1 -12.53560052145215  3.10838392379238 -0.64914641264126
 1 -12.45799832793279 -1.67232963116312 -1.07283749164917
 1 -13.47116311991199 -0.12817663066307 -1.35604296129613
 1 -13.28310877707771 -1.92947418661866 -3.73148614631463
 1 -12.74016419041904 -0.13800252615261 -3.53192076707671
 1 -11.48399174677468 -1.58369131313131 -3.23812292779278
 1 -8.78778967486749 -4.83059590789079 -1.90516809820982
 1 -7.92769647064707 -5.66566667486749 -0.82575680378038
 1 -9.48588075387539 -4.88281506850685 -0.22023027922792
 1 -3.36890702270227 -3.64691627612761 -0.33602025502550
 1 -1.44485557555756 -4.43468184548455  3.44785147214721
 1 -2.76678186558656 -5.68635927832783  3.49701692379238
 1 -1.43730515701570 -5.82696687378738  2.45459216211621
 1  2.62389706080608 -1.65684537443744 -1.59099317561756
 1  2.59029072927293  0.07482040044004 -2.06522854265427
 1  4.34856408070807 -0.94234224042404  0.54631700790079
 1  4.10986192249225  1.55368646494649 -2.26924026632663
 1  5.49661295969597  2.26100049024902 -1.70161451605161
 1  5.62708803160316  0.89101943214321 -2.93067436673667
 1  6.54793781708171  1.39333556125613  0.12929042674267
 1  6.50520386838684 -0.33392664156416  0.81152215931593
 1  7.48623236533653 -1.23486455815582 -1.21218534723472
 1  7.90786231723172  0.39168604510451 -1.97376752365236
 1  8.97347344454445  0.94525714221422  0.52777674017402
 1  8.72999082188219 -0.65914426982698  0.89674429302930
 1  10.06447815931593 -0.09778501220122 -1.72753658425843
 1  9.35851234763476 -2.29370641494149 -2.10428538973897
 1  11.04466755145515 -2.42150866346635 -1.83386957295730
 1  10.16611408500850 -2.68822044464446 -0.57577966866687
 1  11.25485024722472  0.81470587808781  0.19576153955396
 1  11.52524293399340 -0.92399473757376  0.78755622862286
 1  12.99077481318132 -1.34556141754175 -1.19823815871587
 1  12.63566247224722  0.25216469546955 -1.61008937273727
 1  13.81279278247825  0.88177143264326  0.70923758425843
 1  13.73375946624663 -0.75217765506551  0.96783195289529
 1  15.57280967306731  0.15538539893989 -1.60319997949795
 1  15.57054905590559 -2.45135186108611  0.12869527192719
 1  15.04116164796480 -2.09169736333633 -1.81509923032303
 1  16.62024008260826 -1.92802673127313 -1.28940104890489
 1  16.08488369806981  1.21401047374737  0.86592001300130
 1  16.76174787678768 -0.35999239493949  1.32382531423142
 1  18.37804699659966 -0.51816878067807 -0.65241124872487
 1  17.81185126632663  1.14632589108911 -1.26646012991299
 1  18.53468215101510  1.91588348794879  1.19768486938694
 1  18.57996427382738  0.27882149344934  1.68397474907491
 1  20.73322338903890  0.29059549534954  0.13006075647565
 1  19.69530636393640  3.03633261816182 -0.74632490199020
 1  21.21243735763576  2.60662654055405 -1.30070132413241
 1  19.61859269246925  1.84859626192619 -1.64876529982998
 1  21.16574658995900  1.11543084688469  2.24165360696070
 1  22.10406504700470  1.85736426762676  0.92659692589259
 1  20.76764929752975  2.77805148134814  1.67300323152315

