%nproc=4
%Mem=2GB
# td=(NStates=1) CAM-B3LYP/6-31G(d,p) 

TD

0 1
12 -7.14385605490549  0.58273651435144  0.17021507010701
 6 -4.89168804990499 -1.90280239153915  0.48729436433643
 6 -4.80070937723772  2.88341266856686  1.33231668886889
 6 -9.34842943174317  3.10974337373737 -0.34040537353735
 6 -9.54932596019602 -1.73283345834583 -0.89133724872487
 7 -5.02271505310531  0.51876313681368  0.72940046044604
 6 -4.33683128842884 -0.73638425882588  0.86527843064306
 6 -2.88562952415242 -0.29620489258926  1.15545098629863
 6 -2.93488377757776  1.12057318981898  1.70149295569557
 6 -4.29519760646065  1.53874425482548  1.18557481868187
 6 -2.77632542354235  1.43810029732973  3.16186971307131
 6 -1.93421770267027 -0.45525953605361 -0.13318399259926
 6 -0.40049830383038 -0.42537076847685  0.35286386928693
 6  0.46859623802380 -0.79695312741274 -0.72982463426343
 8  0.20402095179518 -1.20799220302030 -1.80163944424442
 8  1.87231425642564 -0.49672457925793 -0.34331855195520
 7 -7.12966057455746  2.61170257755776  0.49615477227723
 6 -6.03685081608161  3.36377733163316  0.94559254325433
 6 -6.40844883458346  4.75340597099710  0.92288005250525
 6 -7.75897649304930  4.85360524722472  0.53821072807281
 6 -8.07244779797980  3.52380267156716  0.13237357655766
 6 -5.56598237943794  5.82082317361736  1.42711923712371
 6 -8.54892410481048  6.09477454545455  0.27881790369037
 6 -8.05747494529453  7.28478456275628  0.18953469116912
 7 -9.16245128082808  0.64670114841484 -0.55043674897490
 6 -9.89517117611761  1.75929661226123 -0.58469359355936
 6 -11.24471921482148  1.46859785018502 -0.95957070667067
 6 -11.32203072377238  0.09557343464346 -1.17767703390339
 6 -9.94400428412841 -0.39471795989599 -0.89483878677868
 6 -12.24502274437444  2.46910919181918 -1.36461699259926
 6 -12.40307035273527 -0.80676173837384 -1.59896507370737
 6 -12.39040537253725 -1.04341822702270 -3.21015912131213
 7 -7.20029628172817 -1.38921828342834 -0.16647976667667
 6 -8.24901012331233 -2.19775571507151 -0.64725253115312
 6 -7.89551721922192 -3.68574275717572 -0.55255368436844
 6 -6.54112963496350 -3.55482979847985 -0.02116460856086
 6 -6.15119989818982 -2.12335849034903  0.08282990439044
 6 -8.60932127682768 -4.84315713461346 -0.91118066506651
 6 -5.31181771947195 -4.37850383568357  0.09968846874687
 8 -5.12289365116512 -5.55378803240324  0.11025706050605
 6 -4.16250966096610 -3.28572150625063  0.63517440944094
 6 -3.60426479067907 -3.63129921452145  1.96050723042304
 8 -3.86932058665867 -3.05267850065006  2.95761947724773
 8 -2.83906525442544 -4.78358651115111  1.83696178417842
 6 -2.31437407590759 -5.31661213051305  3.07337867486749
 6  2.81555533213321 -0.93722297999800 -1.31165654055406
 6  4.08698202060206 -0.62181603100310 -0.68199072777278
 6  5.10883449084908  0.25823914841484 -1.07280718091809
 6  5.05983339993999  0.99338387468747 -2.37736482758276
 6  6.45055151275127  0.32076088298830 -0.38540522672267
 6  7.65951369026903 -0.40543242514251 -1.13940360906091
 6  8.90328941134113 -0.33325305880588 -0.35983857805781
 6  10.19434032703270 -0.60592769106911 -1.15359175357536
 6  10.22760994719472 -2.14386372127213 -1.61124278577858
 6  11.33036415351535 -0.19247013761376 -0.09302910421042
 6  12.76873404240424 -0.48167468336834 -0.75031557135714
 6  13.88765445324533 -0.01265802900290  0.27914512751275
 6  15.25457080108011 -0.07412002370237 -0.26556960726073
 6  15.79742384458446 -1.56581936773677 -0.71078835863586
 6  16.43883713771377  0.47600198629863  0.62699188388839
 6  17.70260596489649  0.69968809460946 -0.04111239113911
 6  18.72445784528453  1.38651049784978  0.93170553225323
 6  20.11349902970297  1.46406215081508  0.36483608720872
 6  20.23837406630663  2.15339098709871 -1.06243206460646
 6  21.20497837193719  2.10632500190019  1.35735243684368
 1 -4.14942520102010  3.64126250795079  1.59949447044704
 1 -10.07784153585358  3.94953253715372 -0.45425972857286
 1 -10.23980324212421 -2.52684273897390 -1.00482402990299
 1 -2.27473616431643 -0.67364702840284  1.99658689728973
 1 -1.90330996899690  1.42928141674167  1.11346571307131
 1 -1.72523624692469  0.98940442944294  3.52175238863886
 1 -2.69441422762276  2.47947740434043  3.32235680318032
 1 -3.56367734893489  0.73230759845985  3.68274215871587
 1 -1.86770929782978 -1.42791871227123 -0.32622760876088
 1 -2.12455665786579  0.12325441674167 -1.05627072867287
 1 -0.06842393639364  0.50961888538854  0.75191744364436
 1 -0.27988394209421 -1.16190916631663  1.18863173907391
 1 -4.94699686738674  6.34671984708471  0.74497627982798
 1 -6.09934460476048  6.61698149694969  1.77686237543754
 1 -4.69733296209621  5.56650182158216  2.13740741944194
 1 -9.82811030993099  5.83057599369937  0.19736758125813
 1 -8.67686832723272  8.19931852135213 -0.01234064076408
 1 -6.89786482308231  7.26166673587359  0.35728125752575
 1 -11.83567898069807  2.81241854715472 -2.30873717211721
 1 -13.21072628612861  2.03071870997100 -1.71172469616962
 1 -12.46283324472447  3.27020010541054 -0.55621711971197
 1 -12.37451998009801 -1.80724312251225 -1.10184039193919
 1 -13.37860386398640 -0.40245405840584 -1.23057041404140
 1 -13.19619008520852 -1.71526276547655 -3.39268226592659
 1 -12.65117529152915 -0.06745547144714 -3.75259283428343
 1 -11.38272161976198 -1.38122106610661 -3.46529564506451
 1 -8.87512840874087 -4.62612546084608 -1.90175775717572
 1 -8.04508820982098 -5.80009011721172 -0.91469569766977
 1 -9.63403556935694 -4.97042382938294 -0.30577883408341
 1 -3.45942607460746 -3.60365194969497 -0.00185683868387
 1 -1.76223731373137 -4.51547992529253  3.61733842084208
 1 -3.15991117851785 -5.67535817821782  3.58598582068207
 1 -1.37890931743174 -5.93206738383838  2.65682238513851
 1  2.81015568666867 -1.79389907980798 -1.70956503280328
 1  2.89608130833083 -0.45468254985499 -2.18732075187519
 1  4.33546277057706 -1.04898290449045  0.33947632383238
 1  4.14362529882988  0.98851994829483 -2.83897724002400
 1  5.30030332873287  1.95104949514951 -2.15568992359236
 1  5.60102542534253  0.62706303650365 -3.09919121842184
 1  6.61758478177818  1.31800802850285 -0.18230073237324
 1  6.34063741174117 -0.05535878477848  0.68061906900690
 1  7.27294103620362 -1.32890396209621 -1.51591572027203
 1  7.87406893789379  0.17558443494349 -2.08095824272427
 1  9.06917301450145  0.60668328482848  0.19212317481748
 1  8.91783960676068 -1.01154951035104  0.56550116871687
 1  10.28744045554556 -0.00352558625863 -1.87906173677368
 1  9.35069156555656 -2.26479352365237 -2.09458441964196
 1  11.06202928762876 -2.26944345694569 -2.36199238523852
 1  10.49285675927593 -2.91639326192619 -0.75891798249825
 1  11.15695045724572  0.97498190569057  0.24264622802280
 1  11.14463487318732 -0.60501283938394  0.92920039303930
 1  12.95762149784978 -1.48897575897590 -0.88027636253625
 1  12.76661556755676  0.27345682468247 -1.56962532633263
 1  13.83410491369137  1.06164942044204  0.75247190769077
 1  13.90467655795580 -0.56861929922992  1.22686785648565
 1  15.61369376147615  0.45669552995300 -1.16586624612461
 1  15.77641964296430 -2.16900362626263  0.23515591799180
 1  15.13422095389539 -1.93435162876288 -1.55730345074507
 1  16.78371643024303 -1.28968289688969 -0.92081419021902
 1  16.20158536823682  1.56764583728373  0.86680010101010
 1  16.43362506450645 -0.15744213991399  1.52306523822382
 1  18.07222641454145 -0.25471243504350 -0.28647465506551
 1  17.63665374657466  1.48268952745275 -0.92535601950195
 1  18.65598428122812  2.32026392599260  1.20815591649165
 1  19.01586786418642  0.78558216951695  1.83087943954395
 1  20.47437750445044  0.40292672847285  0.34896264666467
 1  19.91727856115612  3.10587957285729 -0.98168843834383
 1  21.42149826372637  2.36757263516352 -1.18431968596860
 1  19.69599043224322  1.42329373167317 -1.70962138543854
 1  21.25574558985899  1.41710101390139  2.16469591119112
 1  22.17474211471147  2.27045557675768  0.92601686788679
 1  20.92779531213121  3.16338001420142  1.66411234243424

