%nproc=4
%Mem=2GB
# td=(NStates=1) CAM-B3LYP/6-31G(d,p) 

TD

0 1
12 -7.15631730103010  0.58401664236424  0.12037008560856
 6 -4.85901478257826 -1.92207431873187  0.44954058895890
 6 -4.86514582088209  2.86473080038004  1.15363882108211
 6 -9.41817640644064  3.06493889328933 -0.34874620762076
 6 -9.52964399199920 -1.80880105510551 -0.86544465946595
 7 -5.11311409300930  0.45342660316032  0.59322684308431
 6 -4.37809541484148 -0.67934855525553  0.69051095389539
 6 -2.95180614181418 -0.40105537763776  1.29268470967097
 6 -3.02390267946795  1.07139827232723  1.53756656305631
 6 -4.42877096379638  1.58729911031103  1.08288454965497
 6 -2.89766755775578  1.33665015231523  3.08377190329033
 6 -1.91255553645365 -0.72267627772777  0.13672299809981
 6 -0.47839609360936 -0.60889912131213  0.66419500240024
 6  0.54628400680068 -0.62015544764476 -0.51356300810081
 8  0.25894644434443 -0.94225562936294 -1.65459473977398
 8  1.82666969196920 -0.28525343214321 -0.14872909300930
 7 -7.07776538503850  2.63889529682968  0.27743290009001
 6 -6.07642477347735  3.39732068596860  0.76946493049305
 6 -6.42545053475348  4.77966859725973  0.84373213771377
 6 -7.77394799019902  4.87605749244925  0.38651555855586
 6 -8.23611416461646  3.48849914121412  0.06925726492649
 6 -5.54527030823082  5.98720981228123  1.40497702290229
 6 -8.63090230263026  6.01247631563156  0.31248127002700
 6 -8.16357555535554  7.27292337663766  0.08263400110011
 7 -9.13564860056005  0.59571604990499 -0.46967867316732
 6 -9.93065472447245  1.71270195279528 -0.52761788598860
 6 -11.26677142004201  1.43456444684468 -0.93988873847385
 6 -11.19394791549155  0.04984886218622 -1.19691895809581
 6 -9.92094197789779 -0.39586807490749 -0.91332063496350
 6 -12.52105034713471  2.35725800670067 -1.18492902380238
 6 -12.37342738843884 -0.86775783798380 -1.66537171437144
 6 -12.28080441244125 -1.15450933613361 -3.13641174657466
 7 -7.25773202530253 -1.32622198379838 -0.30800391909191
 6 -8.31021624392439 -2.23757969746975 -0.56431423732373
 6 -7.93797146464646 -3.58796297919792 -0.47255568456846
 6 -6.58703422542254 -3.58337265276528 -0.16003849594959
 6 -6.26341111931193 -2.09585574007401  0.01628324972497
 6 -8.69320966566657 -4.89189200810081 -0.83355290229023
 6 -5.37751428912891 -4.25654163946395  0.07657615751575
 8 -5.29173053485349 -5.48558121172117  0.07781381618162
 6 -4.18410182018202 -3.24567750185018  0.54238513051305
 6 -3.57346171037104 -3.74209029362936  1.82911409110911
 8 -3.78737239183918 -3.15273850665066  2.94919863516352
 8 -2.87270861876188 -4.91153930643064  1.65351343934393
 6 -2.42926556505651 -5.41642211151115  2.89955129212921
 6  2.82224600120012 -0.60317957565757 -1.12139751465146
 6  4.11043436583658 -0.42233608300830 -0.46786931563156
 6  5.21199480688069  0.32878620312031 -0.99522942314231
 6  5.17719513611361  1.04948948524852 -2.21452854395440
 6  6.46378283588359  0.48581738863886 -0.11683837003700
 6  7.68202594149415 -0.06980886278628 -0.96389605830583
 6  8.96619570197020 -0.12751248474847 -0.07299989418942
 6  10.26527742074207 -0.53800089838984 -0.79364575897590
 6  10.24326151235124 -2.07606694159416 -1.10758241974197
 6  11.47168828592859 -0.26158704930493  0.09132933163316
 6  12.81984915391539 -0.59058557445745 -0.46219675947595
 6  14.00142583038304 -0.12712947614761  0.29285649864987
 6  15.33308865286529 -0.23826643834383 -0.52286533683368
 6  15.64504860706071 -1.68062084788479 -0.99367664746475
 6  16.41060431443144  0.45436982308231  0.32717190189019
 6  17.92604830913091  0.68768689448945 -0.26943522342234
 6  18.97655305480548  1.33120496729673  0.66179854155416
 6  20.33610128992899  1.43757950255026  0.10145974957496
 6  20.43996422532253  2.40295594359436 -1.10012583398340
 6  21.34107198129813  1.73357772717272  1.27921462306231
 1 -4.29528978747875  3.74365274697470  1.63742826382638
 1 -10.11105485718572  3.80777836173617 -0.40676497909791
 1 -10.17408667046705 -2.57720777547755 -1.28226177367737
 1 -2.76159485018502 -0.85758542224222  2.14093133173317
 1 -2.17729736773677  1.63163165176518  0.98620298679868
 1 -1.94152787608761  1.00474596359636  3.36551676507651
 1 -3.02066685288529  2.53030248684868  3.35697026452645
 1 -3.56883786498650  0.78159252695270  3.72530641514151
 1 -2.14042656955696 -1.87883380378038 -0.14139912591259
 1 -2.04848905110511 -0.20502841154115 -0.70056515811581
 1 -0.31776887088709  0.23278120162016  1.25760801270127
 1 -0.10079603330333 -1.41279425482548  1.39728260416042
 1 -4.84316648434844  6.58266344144414  0.64952673487349
 1 -6.27572224252425  6.64709450825082  1.78050273947395
 1 -4.81464469326933  5.67712288368837  2.23108678737874
 1 -9.68329582848285  5.98110104620462  0.52546039053905
 1 -8.69674031443144  8.20716930643064  0.06051664496450
 1 -7.13344838143814  7.49432000120012 -0.21207567816782
 1 -12.35820123292329  2.84105141044104 -2.13397969636964
 1 -13.38288350185018  1.91270690879088 -1.60217374107411
 1 -12.55100206160616  3.08847193259326 -0.41245274327433
 1 -12.54829735783578 -1.72927532573257 -1.03584379227923
 1 -13.24754075767577 -0.27202101510151 -1.42814017101710
 1 -13.17314778097810 -1.86218745794579 -3.37614061176118
 1 -12.46511668566857 -0.16791551745175 -3.77531510651065
 1 -11.54110745834583 -1.78705164916492 -3.53214232973297
 1 -9.04406530243024 -4.73538638693869 -1.90047762916292
 1 -7.82181588258826 -5.57808791699170 -1.04825905400540
 1 -9.35902806860686 -5.12819960696070 -0.12539079527953
 1 -3.41530166216622 -3.47913949844984 -0.27899455245525
 1 -1.79916100610061 -4.61676005330533  3.28258494549455
 1 -3.26878206560656 -5.69871051345134  3.52592981508151
 1 -1.86140756725673 -6.53629780688069  2.84798150105011
 1  2.82951762286229 -1.58848853875387 -1.60759483578358
 1  2.42612431263126  0.06094901330133 -1.96085810561056
 1  4.21003022732273 -0.98815682188219  0.45154753095310
 1  4.13783471977198  1.24325542184218 -2.66680002230223
 1  5.60405370377038  2.13223761396140 -2.24573892849285
 1  5.82535785858586  0.42352268246825 -3.08012931223122
 1  6.58468149144915  1.49521574927493  0.12839033673367
 1  6.14827817581758 -0.10107335623562  0.73646465356536
 1  7.43436717881788 -1.10191126282628 -1.14832896159616
 1  7.93817534853485  0.53865074157416 -1.77702784968497
 1  9.19334543174317  0.96689930643064  0.25946990949095
 1  8.91666948974898 -0.81737009240924  0.90890550915091
 1  10.24466617811781 -0.07932316601660 -1.85115894649465
 1  9.31065756215622 -2.38147519181918 -1.51561652285228
 1  11.10534361906191 -2.32437895049505 -2.04328051405141
 1  10.62006948054806 -2.68466008860886 -0.00586267696770
 1  11.58836359855986  0.76720112761276  0.21300326372637
 1  11.25727613731373 -0.69480181828183  1.01651912491249
 1  12.78111384708471 -1.70476733813381 -0.79701803670367
 1  12.84686359235924  0.02957243624362 -1.36626499029903
 1  13.64449595279528  0.78694194969497  0.51041770227023
 1  14.23114920522052 -0.63711614891489  1.51741691139114
 1  15.32263465556556  0.34748460886089 -1.46520618011801
 1  16.05487748874888 -2.37172389828983 -0.03569116671667
 1  14.81015854765477 -2.02311050465046 -1.70564828522852
 1  16.55565362396240 -1.55234916351635 -1.63167527632763
 1  16.22529773947395  1.65850492319232  0.50555397639764
 1  16.43845554755476  0.09106271057106  1.33799673137314
 1  18.25666485838584 -0.39488645244524 -0.48312432003200
 1  17.83678375957596  1.20303156165617 -1.20486397029703
 1  18.50718940174017  2.12385428502850  0.90014511541154
 1  19.04974125152515  0.66741035233523  1.66845319691969
 1  20.49977004370437  0.47081351715172 -0.27559980958096
 1  19.86209304260426  3.36954593949395 -0.81972224172417
 1  21.42853896779678  2.26589246714671 -1.60555180918092
 1  19.88040887408741  1.80061146344634 -1.85929635293529
 1  21.25329534483448  0.91752105590559  2.17132657425743
 1  22.45049969046905  1.57979651085109  0.77258152435243
 1  21.31663419601960  2.67185086128613  1.73975990719072

