%nproc=4
%Mem=2GB
# td=(NStates=1) CAM-B3LYP/6-31G(d,p) 

TD

0 1
12 -7.11505317461746  0.53452169286929  0.09546759535954
 6 -4.90271915301530 -1.97401951325132  0.55284091899190
 6 -4.80624993129313  2.78602292959296  1.09371282848285
 6 -9.35145973477348  3.09170156955696 -0.27795912891289
 6 -9.51014204180418 -1.72304247924792 -0.96835495049505
 7 -5.09207198879888  0.35357661816182  0.73461098149815
 6 -4.35207281258126 -0.73897451785179  0.79549145194519
 6 -2.95451641284128 -0.44674994709471  1.24607004820482
 6 -3.09064935413541  1.04580571307131  1.69809261566157
 6 -4.41154924162416  1.53851423182318  1.18394465566557
 6 -2.97840563156316  1.17170365766577  3.21725525162516
 6 -2.00757503840384 -0.69904391449145  0.14245357115712
 6 -0.45836409040904 -0.51618985038504  0.52952153505351
 6  0.46552593099310 -0.74685811791179 -0.66590824262426
 8  0.18826937663766 -1.03429483328333 -1.74073335363536
 8  1.71867889288929 -0.39134404120412 -0.36151037113711
 7 -7.07740534903490  2.54412581988199  0.30694585138514
 6 -6.06562369336934  3.29711066496650  0.73170115411541
 6 -6.33724171387139  4.75949658005801  0.91745951045105
 6 -7.66904750015001  4.86432631933193  0.40832773977398
 6 -8.12326287948795  3.48525881718172  0.05598593779378
 6 -5.39366514771477  5.78758985028503  1.33415994119412
 6 -8.51577078947895  6.04557962596260  0.34646466836684
 6 -8.10932012981298  7.31220730503050  0.17123286098610
 7 -9.02969800550055  0.70233671197120 -0.60022172747275
 6 -9.82491415041504  1.81110179277928 -0.58838396259626
 6 -11.19409415231523  1.50071106150615 -1.06280102970297
 6 -11.23389190989099  0.12210608790879 -1.20147941414141
 6 -9.87119700340034 -0.38188667676768 -0.94032333523352
 6 -12.18581682378238  2.57459974087409 -1.37409794069407
 6 -12.33077312301230 -0.79089015121512 -1.75579075627563
 6 -12.31542787478748 -0.91578546374637 -3.22146025142514
 7 -7.24876112821282 -1.48139750135014 -0.15731885058506
 6 -8.29951517381738 -2.26037197669767 -0.57172497839784
 6 -7.80837850535054 -3.68490267316732 -0.56818524752475
 6 -6.52229775177518 -3.69160347584759 -0.09890238233823
 6 -6.18616339453945 -2.30032618711871  0.07635925732573
 6 -8.77293763846385 -4.86878969786979 -0.74721426842684
 6 -5.42081861956196 -4.47035302060206  0.21612011191119
 8 -5.15483684548455 -5.65087774137414  0.23364939973997
 6 -4.23915732573257 -3.31625455955596  0.56329722172217
 6 -3.61924628882888 -3.68900498509851  1.94786596629663
 8 -3.68990264486449 -3.16547978077808  3.03848756405641
 8 -2.64405575347535 -4.67541569406941  1.75960404840484
 6 -2.07514015251525 -5.07546801610161  2.96404774177418
 6  2.70722449904991 -0.70973023072307 -1.25747112201220
 6  3.99448277067707 -0.42887673707371 -0.58674120282028
 6  5.06722032943294  0.35394871937194 -0.97507740794079
 6  5.06330374697470  1.23665820212021 -2.16330342144214
 6  6.30300675827583  0.47005581248125 -0.14642132833283
 6  7.62681041994199  0.03700181828183 -1.03835350405041
 6  8.98758784118412  0.01684195069507 -0.16677927212721
 6  10.23692458545855 -0.38832593089309 -0.93151954635464
 6  10.05336252245224 -2.01432076697670 -1.38555021652165
 6  11.39379049614961 -0.21224211481148 -0.02323212451245
 6  12.76016318531853 -0.50494701060106 -0.81985252505251
 6  13.92127781558156 -0.10124688788879  0.16144335733573
 6  15.39614495849585 -0.17135974767477 -0.47062011231123
 6  15.63616771897190 -1.61324411021102 -0.89640692049205
 6  16.41229448344834  0.35292967906791  0.38851803650365
 6  17.89363506780678  0.50861898769877 -0.14697297719772
 6  18.71645704520452  1.33945579237924  0.76331869356936
 6  20.20870855065506  1.34450019461946  0.24014361796180
 6  20.41434166306631  2.12485813381338 -1.02506832823282
 6  21.11300917501750  1.95614998439844  1.41288799039904
 1 -4.17925818431843  3.54222260396040  1.48793331433143
 1 -10.14207795949595  3.94261184508451 -0.44264856745675
 1 -10.53864312611261 -2.48093814851485 -1.13808735623562
 1 -2.89191788248825 -1.25399506320632  2.12375961456146
 1 -2.37508714671467  1.85989447804780  1.33299766626663
 1 -1.91749547284728  0.90929641864186  3.52191240464046
 1 -3.44393918011801  2.27272672927293  3.36933150065007
 1 -3.77452843404340  0.73646801450145  3.86034991949195
 1 -1.98146067296730 -1.72590851125113 -0.31124611061106
 1 -2.20432463466347 -0.00387829652965 -0.68288338993899
 1 -0.21987908190819  0.48843676717672  1.03390564246425
 1 -0.18736469016902 -1.28683165856586  1.40053292919292
 1 -4.98698086578658  6.23232840794079  0.27778956115612
 1 -5.99997466776678  6.64546434523452  1.77084177337734
 1 -4.51744497329733  5.50075524692469  2.10399407810781
 1 -9.53859135803580  5.80891382748275  0.68598644314431
 1 -8.65733637403740  8.23205179467947  0.35213580688069
 1 -7.18683371997200  7.48586915611561 -0.04933940454045
 1 -11.88854426722672  3.34268157345735 -2.27249354775478
 1 -13.18398361186119  2.36544218231823 -1.76879040274027
 1 -12.45606256765677  3.17884096949695 -0.54764626262626
 1 -12.28278080618062 -1.61442384058406 -1.23463367126713
 1 -13.31042704630463 -0.24530834383438 -1.41745910291029
 1 -13.08468893509351 -1.54862610181018 -3.80281327902790
 1 -12.28822899689969  0.08062933703370 -3.76650422542254
 1 -11.46134948254826 -1.48982192619262 -3.48184730023002
 1 -9.37006790269027 -4.78208105640564 -1.63845142654265
 1 -8.34130783178318 -5.82029213741374 -0.71593582168217
 1 -9.42709487528753 -5.02343913091309  0.00793253705371
 1 -3.46052618461846 -3.57137872237224 -0.29155580858086
 1 -1.36823791379138 -4.27680605790579  3.49989667666767
 1 -2.82653784118412 -5.21788243064306  3.69016623872387
 1 -1.51086251275128 -5.98022219931993  2.59716641954195
 1  2.77783245434543 -1.90004969486949 -1.50289436573657
 1  2.63731543174317 -0.14930201180118 -2.23184520432043
 1  4.13253247754776 -0.80841884808481  0.41137351355135
 1  4.03723465976598  1.45553664996500 -2.83494683698370
 1  5.54519781818182  2.10277466766677 -2.02267662226223
 1  5.68858418121812  0.90258058825883 -2.94649594889489
 1  6.50371339463946  1.45862208990899 -0.00492299459946
 1  6.32582593059306 -0.25395864476448  0.72613362046205
 1  7.48342208430843 -1.08588966066607 -1.45015914461446
 1  7.86435796679668  0.65339221572157 -1.99770991789179
 1  9.10266636383638  0.96687930443044  0.22696665916592
 1  8.67935575837584 -0.38629698509851  0.73030764936494
 1  10.19145085658566  0.16686145244524 -1.87482131273127
 1  9.11803830023002 -2.00110715501550 -1.97233219441944
 1  10.89177226192619 -2.31392790539054 -2.02562874887489
 1  9.86945441904190 -2.53331495409541 -0.36186827752775
 1  11.50625538773877  0.63454786228623  0.30654261766177
 1  11.35697610731073 -0.90818315641564  0.89317679067907
 1  12.82066780248025 -1.42409927132713 -1.13090142504250
 1  12.83513241924192  0.07429690869087 -1.85570393419342
 1  13.93007451065107  0.92571582708271  0.68584524502450
 1  13.91747783808381 -0.61630406770677  1.11377654735474
 1  15.14334672677268  0.53312317271727 -1.52488214771477
 1  15.87061906290629 -2.45149187508751 -0.06324392199220
 1  14.55003253505351 -1.91432962656266 -1.32420014041404
 1  16.46247430603060 -1.78137206580658 -1.41161327012701
 1  16.09735494519452  1.40432950565056  0.69135255625563
 1  16.48386008800880 -0.31331772747275  1.34584751645165
 1  18.31587077897790 -0.56630359415942 -0.15629163676368
 1  17.74927500870087  0.94947620612061 -0.98086157005701
 1  18.28471715451545  2.38108000760076  1.20255535643564
 1  18.69681595899590  0.81668527982798  1.94366071767177
 1  20.60882094879488  0.32437887368737 -0.01630387998800
 1  20.03296012931293  3.06894587948795 -1.16126639613961
 1  21.49054516841684  2.02267814571457 -1.31209246324632
 1  19.86084691789179  1.49869127142714 -1.77542796609661
 1  21.26839685498550  1.35210451425143  2.24648409000900
 1  22.20652529302930  2.10799933113311  0.89198346454645
 1  20.63126565916592  2.89931360756076  1.85304123532353

