%nproc=4
%Mem=2GB
# td=(NStates=1) CAM-B3LYP/6-31G(d,p) 

TD

0 1
12 -7.20050171947195  0.61809004970497  0.07240528912891
 6 -4.80535941704170 -1.93929604090409  0.47002263716372
 6 -4.80892019831983  2.94413874117412  1.21214467166717
 6 -9.46914150295029  3.02478487788779 -0.25431676467647
 6 -9.56458748634864 -1.75839601460146 -0.82633074807481
 7 -5.12459524112411  0.57045830633063  0.77101462186219
 6 -4.35252285758576 -0.61304192459246  0.66996889968997
 6 -2.98232919411941 -0.34578985108511  1.11742718391839
 6 -3.06152644184418  1.17591872437244  1.69500230663066
 6 -4.40696878357836  1.60156053645365  1.16976323752375
 6 -2.94065185618562  1.29205569286929  3.20224375047505
 6 -1.90000428132813 -0.42045605570557 -0.02832350655066
 6 -0.43978223222322 -0.40967919931993  0.45824440734073
 6  0.57296667506751 -0.74166759885989 -0.58022967476748
 8  0.15981653135314 -1.19373077687769 -1.73594287458746
 8  1.73404042904290 -0.41543645044504 -0.23020724082408
 7 -7.16360396889689  2.68824023132313  0.44062921972197
 6 -6.08318544954495  3.40082103600360  0.91029901390139
 6 -6.50205819551955  4.72645327572757  0.90691845634563
 6 -7.86044664006401  4.80017990469047  0.52353926092609
 6 -8.20426097929793  3.45798608990899  0.22422276147615
 6 -5.64676045724572  5.88871996329633  1.39411593679368
 6 -8.70188940134014  6.00633570157016  0.38220824272427
 6 -8.25698489628963  7.25138122242224  0.10628636633663
 7 -9.14168920462046  0.57786426472647 -0.43610531583158
 6 -9.95521718071807  1.73798448104810 -0.58675379957996
 6 -11.20911565446545  1.39635062546255 -1.05496024562456
 6 -11.29906842754275  0.07440131743174 -1.20607987418742
 6 -9.98463834753475 -0.45943443154315 -0.88666796969697
 6 -12.38374661676168  2.34996727762776 -1.10783131403140
 6 -12.39072911861186 -0.80780184238424 -1.67651282848285
 6 -12.15777210921092 -1.09651353655366 -3.20541864726473
 7 -7.17906415851585 -1.32720208180818 -0.26193931263126
 6 -8.25419064136414 -2.23067900740074 -0.49180698659866
 6 -7.77955562306231 -3.58451263416342 -0.52141057005701
 6 -6.43411893389339 -3.52513682918292 -0.13786627872787
 6 -6.12194697289729 -2.11243739823982  0.10801242264226
 6 -8.61056140084008 -4.88890170907091 -0.63406295329533
 6 -5.25813235093509 -4.30491647694770  0.23573207310731
 8 -5.09028038983898 -5.53779643324332  0.23017905270527
 6 -4.06997040704070 -3.19111204530453  0.51403229522952
 6 -3.37303166736674 -3.60934701930193  1.81086226592659
 8 -3.47603125772577 -2.96082931573157  2.85737945324532
 8 -2.61094244214421 -4.65411356385639  1.55840392839284
 6 -1.92961560006001 -5.14735520482048  2.76057739473947
 6  2.79948372497250 -0.72162141984198 -1.19763513841384
 6  4.17719104150415 -0.42188603800380 -0.71793432213221
 6  5.20163377077708  0.26921024552455 -1.23878377857786
 6  5.26476389298930  1.10768530483048 -2.57729482058206
 6  6.47716417401740  0.36996580348035 -0.46812349854985
 6  7.60407814671467 -0.37663954585459 -1.10573024172417
 6  8.96782586498650 -0.10284001750175 -0.33825641984198
 6  10.13593448644865 -0.69153625192519 -0.98567496189619
 6  10.07366455265527 -2.11233056795680 -1.30871253275328
 6  11.32533365046505 -0.37279817041704 -0.03447324862486
 6  12.74303147214721 -0.61535805170517 -0.68484902470247
 6  13.88639432723272 -0.24615137833783  0.27676488948895
 6  15.34246959095910 -0.33034564626463 -0.39313236353635
 6  15.71714581678168 -1.74942772857286 -0.91544882468247
 6  16.36413966796680  0.31592597869787  0.51319050375037
 6  17.70591629592959  0.64113223902390 -0.06285456535654
 6  18.65542094159416  1.39587143394339  0.86370873257326
 6  20.06552423222322  1.43866961156116  0.46928653225323
 6  20.27296752565256  2.10785643364336 -0.92770859225923
 6  21.09390726482648  2.05721009040904  1.54177087868787
 1 -4.04066432493249  3.78500688238824  1.39608412941294
 1 -10.23989774147415  3.84027161106111 -0.30819512211221
 1 -10.23907316911691 -2.35591564626463 -1.05844939243924
 1 -2.74493318401840 -0.94379404310431  2.04875211381138
 1 -2.18389802780278  1.99467795639564  1.28798316481648
 1 -1.82390611391139  1.18065355435544  3.47520773417342
 1 -3.11300608680868  2.30876033263326  3.41301586908691
 1 -3.29833081428143  0.38431279897990  3.94427831233123
 1 -2.15531805870587 -1.27850377077708 -0.50573555955596
 1 -2.00812501470147  0.52031412271227 -0.68304340594059
 1 -0.13944103810381  0.52253017651765  1.04042629452945
 1 -0.20062601630163 -1.21523449884988  1.19727260316032
 1 -5.04800696839684  6.39821499659966  0.55859764196420
 1 -6.16979164946495  6.71747154595460  1.79939462866287
 1 -4.79560278907891  5.33143831523152  1.87139081778178
 1 -9.84886238513851  5.92943587968797  0.55991383588359
 1 -8.97157779817982  8.11548013751375 -0.07491689838984
 1 -7.14150918751875  7.53740430963096 -0.00180465106511
 1 -12.22245765856586  3.46974427972797 -1.48777507590759
 1 -13.54133934743474  1.84437007510751 -1.55034855855586
 1 -12.82789975137514  2.67324040944094 -0.03435493349335
 1 -12.23071559965997 -1.78875127332733 -1.25577578547855
 1 -13.34231023462346 -0.38182199519952 -1.61502885988599
 1 -12.86204667086709 -1.90948218741874 -3.59237223492349
 1 -12.03454362836284 -0.25111383728373 -3.80312788778878
 1 -11.31788513611361 -1.79461240524052 -3.39181829732973
 1 -8.87541843774378 -5.10829367766777 -1.71663924532453
 1 -7.98656235723572 -5.99022913111311 -0.21767599569957
 1 -9.70254242004200 -4.53328011501150 -0.25808406460646
 1 -3.34350448244825 -3.22554413891389 -0.14025067806781
 1 -1.21326241624162 -4.26077445474547  3.18506519351935
 1 -2.68804399179918 -5.49747038943894  3.45143236533653
 1 -1.45260668716872 -6.18028220532053  2.49345604850485
 1  2.80717538863886 -1.78463815371537 -1.37689176547655
 1  2.55701740194019 -0.40410749234923 -2.06944896469647
 1  4.49910913521352 -0.88537654385439  0.22709508570857
 1  4.40955189148915  0.97972906920692 -3.20491383368337
 1  5.55735903430343  2.17023141334133 -2.42593694829483
 1  6.27274259705971  0.49662999319932 -3.25331663096310
 1  6.77437046034604  1.39199542724272 -0.41030353265327
 1  6.44920826882688 -0.01272452135214  0.63682468956896
 1  7.51717545964596 -1.55409648134813 -1.35547967666767
 1  7.54515604660466  0.08079495599560 -1.99666981388139
 1  9.05414151135113  1.07997061356136 -0.36281231873187
 1  8.74081190399040 -0.41819017441744  0.62199681828183
 1  10.50930264176418 -0.20874610831083 -2.04315814641464
 1  9.22508900530053 -2.25631267556756 -2.12074703590359
 1  10.93106619131913 -2.51336784938494 -1.74932111811181
 1  9.94269174277428 -2.89562118471847 -0.57418950965097
 1  11.37743250545054  0.75232964046405  0.11135309870987
 1  11.23179358905891 -0.86985932403240  0.88371584458446
 1  12.61418715441544 -1.67300416181618 -0.88341667656766
 1  12.77099600560056 -0.21357187818782 -1.64862322612261
 1  13.79200070327033  0.78429168466847  0.69925658615862
 1  13.68208429872987 -0.83230566786679  1.16112128182818
 1  15.23866625872587  0.34783464386439 -1.32660231973197
 1  15.71408340934093 -2.48198492439244 -0.05506310391039
 1  15.10460799259926 -2.01037923152315 -1.87857557795780
 1  16.75919397799780 -1.60744467306731 -1.25783789258926
 1  15.94592980268027  1.30091916461646  0.82525594659466
 1  16.58876057805781 -0.27196359205921  1.59558248994899
 1  17.97708690059006 -0.14773173697370 -0.28612462006201
 1  17.47341742294229  1.37880913941394 -0.81558504240424
 1  18.23661234403440  2.40647254685469  0.95798089898990
 1  18.54268054545454  0.83102671397140  1.87638398999900
 1  20.58035810251025  0.45911234703470  0.15756350675068
 1  19.88854568786879  3.26341532643264 -0.92737300680068
 1  21.39622573647365  2.44542041994199 -1.28887014101410
 1  19.69558039123912  1.56875827812781 -1.73395381868187
 1  20.91410142544255  1.55264456825683  2.48798824042404
 1  22.09887452795279  2.01778030923092  1.12335660186019
 1  20.79416194879488  3.01382505870587  1.83723965516552

