%nproc=4
%Mem=2GB
# td=(NStates=1) CAM-B3LYP/6-31G(d,p) 

TD

0 1
12 -7.17900957025703  0.64779302000200  0.14513256185619
 6 -4.83208208930893 -2.00510262156216  0.49822545744574
 6 -4.79161846814682  2.84876920422042  1.23925738293829
 6 -9.42192678147815  3.09643204260426 -0.29634096709671
 6 -9.50205123272327 -1.74148432343234 -0.92772088708871
 7 -5.22349513111311  0.42447370787079  0.74285180558056
 6 -4.35861346664666 -0.76082670307031  0.81298320112011
 6 -2.98411937313731 -0.39998527062706  1.28631407260726
 6 -3.05268555775578  1.01365249774978  1.81422422882288
 6 -4.41200928762876  1.47695807620762  1.14219048024802
 6 -2.95266305730573  1.19408589588959  3.36013954005400
 6 -1.93959824072407 -0.41300531063106  0.20177950375038
 6 -0.41294954895490 -0.37670590199020  0.70457904080408
 6  0.45416479487949 -0.61268470057006 -0.48358000980098
 8  0.19127967766777 -0.96426783058306 -1.62815209550955
 8  1.73490051505151 -0.34048895569557 -0.01597581768177
 7 -7.16576418491849  2.55804721202120  0.37600275707571
 6 -6.01868899989999  3.30815176907691  0.82116010001000
 6 -6.39578756845685  4.70946157655766  0.75112287678768
 6 -7.64709530493049  4.82541242794280  0.24991189818982
 6 -8.15247580078008  3.49870016131613  0.12728306750675
 6 -5.59536531773177  5.78217930923092  1.41450797599760
 6 -8.56806601900190  6.00836590459046  0.14893491539154
 6 -8.23870306810681  7.31425751005101 -0.02670693299330
 7 -9.18128316401640  0.62965944424442 -0.50818252355236
 6 -9.80981264026403  1.82444312691269 -0.67614273847385
 6 -11.19247399029903  1.44526551695170 -1.05328007760776
 6 -11.29347786848685  0.10679455675568 -1.20308957515752
 6 -9.88461834553455 -0.40137862596260 -0.85239454235424
 6 -12.28850709280928  2.55564784568457 -1.43845437633763
 6 -12.40712075777578 -0.70241130333033 -1.73502868006801
 6 -12.31955828782878 -0.96900078527853 -3.29618772417242
 7 -7.21660791289129 -1.46457581918192 -0.17787090579058
 6 -8.26591181348135 -2.28679461896190 -0.45040284618462
 6 -7.80908857635764 -3.65364954785479 -0.50847927692769
 6 -6.57463298529853 -3.65143945944594 -0.11569406150615
 6 -6.10051482968297 -2.22849900440044  0.00892251365137
 6 -8.58626897159716 -4.85002782168217 -0.92873242024202
 6 -5.27321385908591 -4.38794477977798  0.09341784168417
 8 -5.04387574937494 -5.62214486808681  0.05919195399540
 6 -4.14267767776778 -3.37728066216622  0.54059495149515
 6 -3.61942630683068 -3.67768385298530  1.91818299799980
 8 -3.90511416601660 -3.12928616141614  2.96231994729473
 8 -2.75007635553555 -4.76635478797880  1.75022311031103
 6 -2.24901754025403 -5.20665113441344  2.91488282528253
 6  2.75590936753675 -0.69012827052705 -1.06275165006501
 6  4.10435375777578 -0.32728657805781 -0.52969549824982
 6  5.13287689508951  0.36765008950895 -1.00243014321432
 6  5.02095951255126  1.30466500280028 -2.20792788388839
 6  6.48582504010401  0.49051785868587 -0.21834852105211
 6  7.64437217611761 -0.14267614951495 -1.06676634533453
 6  9.00686976937694 -0.17684741824182 -0.22567516171617
 6  10.20480137313731 -0.61147824612461 -0.96967336173617
 6  10.20280746694669 -1.92758209310931 -1.55271693319332
 6  11.40617173427343 -0.34180507110711 -0.05301510281028
 6  12.87062423142314 -0.65487200310031 -0.67231777157716
 6  13.97762345014501 -0.20586734993499  0.26579379237924
 6  15.29921526552655 -0.18028063976398 -0.46714976527653
 6  15.78664276647665 -1.56806959275928 -0.88177545734573
 6  16.30890414441444  0.42259664576458  0.48904808950895
 6  17.80546625092509  0.62282040784078 -0.18191647154715
 6  18.79542494199420  1.34664651145115  0.74696705840584
 6  20.26297397719772  1.34694043864386  0.16537614121412
 6  20.40404063296329  2.11397704570457 -1.08685450685069
 6  21.19648752285229  1.90595496489649  1.24575127672767
 1 -4.02777303580358  3.54567294899490  1.48292281328133
 1 -9.94926867856786  4.06494407830783 -0.73506780938094
 1 -10.24386364816482 -2.61456151085109 -1.11298484598460
 1 -2.75242393309331 -1.15133479717972  2.10392763136314
 1 -2.19186882488249  1.76877536613661  1.43480784728473
 1 -1.95987971127113  0.58823431243124  3.77308752215222
 1 -3.08210299649965  2.30677013361336  3.53862843034303
 1 -3.84733571477148  0.58980334803480  3.70720460496050
 1 -1.90794332123212 -1.52070799119912 -0.53796878287829
 1 -2.18270247244724  0.42886497779778 -0.68162326392639
 1 -0.11017811181118  0.64622254575458  1.22689494139414
 1 -0.38167412111211 -1.06535951135114  1.40288316421642
 1 -4.82526469416942  6.30170534563456  0.69235101730173
 1 -6.16386105640564  6.51840163896390  1.80020470967097
 1 -4.94279750855085  5.48413358475848  2.19075275397540
 1 -9.66723422232223  5.73278621472147  0.06894473897390
 1 -9.12616325672567  8.06839542904290  0.08091868516852
 1 -7.10583562016202  7.46016658585859  0.06923245264526
 1 -11.83210862366237  3.09008631393139 -2.16302260066007
 1 -13.20373558705871  2.05338097619762 -1.87344086778678
 1 -12.73350031143115  3.19569265466547 -0.72946444444444
 1 -12.53117564566457 -1.82700509870987 -1.17449765766577
 1 -13.47869387298730 -0.43153696669667 -1.35876323332333
 1 -13.04545501170117 -1.86218745794579 -3.60206320402040
 1 -12.48147832183218  0.05454672877288 -3.80391796679668
 1 -11.31310465806581 -1.20880382438244 -3.45651476697670
 1 -9.11111200710071 -4.94484733303330 -1.84164174557456
 1 -7.83736743774377 -5.74770487868787 -0.85902013011301
 1 -9.53764593039304 -4.92506929392939 -0.06808506470647
 1 -3.55369550155016 -3.70219180368037 -0.30746739973997
 1 -1.54186527652765 -4.66252462976298  3.45206189318932
 1 -3.11740692809281 -5.28927957035703  3.78888611071107
 1 -1.89795122162216 -6.27538171527153  2.67995469836984
 1  2.66516118721872 -1.82603229312931 -1.21651572787279
 1  2.57684938513851 -0.20846792839284 -1.88802082188219
 1  4.45671489578958 -0.96343434963496  0.29538191439144
 1  4.08528946524652  1.46807790409041 -2.41667500980098
 1  5.29478277667767  2.20365475567557 -1.99216357095710
 1  5.61835715851585  0.88956928712871 -3.00842214151415
 1  6.82884590789079  1.51653788148815  0.08416591429143
 1  6.35133848184818 -0.01601485038504  0.60555156225623
 1  7.06338008010801 -1.12169324102410 -1.31841597029703
 1  8.12980451145114  0.42296917341734 -2.14890503740374
 1  9.07077317451745  0.86329894639464 -0.14419045654566
 1  9.01216903970397 -0.77411576697670  0.81214583318332
 1  10.33602531403140  0.38042280858086 -1.78670250085009
 1  9.30011650805081 -2.11731877617762 -2.18931389258926
 1  11.06695978067807 -2.10139665226523 -2.21159734573457
 1  10.15015248884889 -2.79959158175818 -0.74166625732573
 1  11.24390915311531  0.66169057655766  0.43491545494549
 1  11.37947835753575 -1.25382772087209  0.87347482048205
 1  12.90546628232823 -1.46293315471547 -1.16842517741774
 1  13.15328423442344  0.16195567456746 -1.51019938373837
 1  13.68886038923892  0.87069032453245  0.58903556405641
 1  14.09169525982598 -0.78221065836584  1.07871304100410
 1  15.33087547964796  0.24048390879088 -1.44350400990099
 1  15.85096709770977 -2.29106583248325 -0.04724232183218
 1  15.11047857965797 -1.92824101770177 -1.67941566196620
 1  16.67325538413841 -1.57294122272227 -1.43019512831283
 1  15.94570978067807  1.34841391409141  0.72469589058906
 1  16.59137083908391 -0.29214561026103  1.30173310501050
 1  18.20183937583759 -0.29844680848085 -0.57512351995200
 1  17.60010009120912  1.01689294779478 -1.06613009690969
 1  18.43695237803780  2.45748764836484  0.84247934883488
 1  18.76277255465546  0.80498410971097  1.84302065366537
 1  20.61101116781678  0.27317375317532 -0.07203945354535
 1  19.97373420672067  3.17618660356036 -1.11874214371437
 1  21.61303741764176  2.18868474637464 -1.44335558955896
 1  19.83894472767276  1.60946234853485 -1.85539596289629
 1  21.21768178347835  1.58425772957296  2.37738718031803
 1  22.33327796829683  1.89858839003900  0.95421968816882
 1  20.85070760336034  3.02957663386339  1.28197412861286

