%nproc=4
%Mem=2GB
# td=(NStates=1) CAM-B3LYP/6-31G(d,p) 

TD

0 1
12 -7.24944661396140  0.57386562726273  0.17289533813381
 6 -4.81608048914891 -1.94232634393439  0.45037067196720
 6 -4.81853115941594  2.82045637293729  1.18593205040504
 6 -9.45475006380638  3.04718711811181 -0.27534886788679
 6 -9.60390141774177 -1.78968914391439 -0.75167328232823
 7 -5.04848763036304  0.46557781828183  0.68033555395540
 6 -4.37356496179618 -0.69111973237324  0.70572247504750
 6 -2.88776973817382 -0.43905917801780  1.05703114431443
 6 -2.95585587478748  1.07255838833883  1.55712851925193
 6 -4.35443353005301  1.45387576797680  1.03990025122512
 6 -2.89742753375338  1.38871535883588  3.11721524762476
 6 -1.91254553545355 -0.56718072817282 -0.01786246044604
 6 -0.40160841484148 -0.26821505290529  0.33733231613161
 6  0.55319469786979 -0.54232766486649 -0.74559621142114
 8  0.34529507920792 -0.89071047484748 -1.88550783108311
 8  1.83572059705971 -0.26851175797580 -0.33777799789979
 7 -7.13956156465647  2.61862326962696  0.36026118291829
 6 -6.10072720372037  3.26186714061406  0.75579356335634
 6 -6.42735072477248  4.72336296669667  0.75741350585058
 6 -7.78537913331333  4.77201708840884  0.40102700970097
 6 -8.22462301550155  3.40226051735173  0.13323366256626
 6 -5.56583236443644  5.89437052835283  1.35783230843084
 6 -8.59423863626363  5.96492156015602  0.33712373427343
 6 -8.26609580738074  7.20142622692269  0.05547128482848
 7 -9.10264530023002  0.64794127242724 -0.52228393369337
 6 -9.88318997799780  1.74154483708371 -0.58872399659966
 6 -11.21502624552455  1.44521551195120 -1.03233798339834
 6 -11.25217373807381  0.09625350265027 -1.16938620482048
 6 -9.97757764146415 -0.38050653875388 -0.82011131403140
 6 -12.37184542664266  2.32275455635564 -1.20977150805081
 6 -12.35607565326533 -0.73011407360736 -1.55275045224522
 6 -12.51356768876888 -1.06094998019802 -3.05318342374237
 7 -7.28690494259426 -1.35852521412141 -0.09252237093709
 6 -8.27950317261726 -2.28404434393439 -0.44102190809081
 6 -7.82821048854886 -3.64234841774177 -0.39608803780378
 6 -6.49537505950595 -3.54103841934193 -0.07818031013101
 6 -6.17607238543854 -2.16360251475148  0.14810643204320
 6 -8.63430377507751 -4.88532135103510 -0.76185573257326
 6 -5.25208174587459 -4.37141312661266  0.12903140304030
 8 -5.13104446624662 -5.59467212081208 -0.00588455365537
 6 -4.14496790679068 -3.28558149224923  0.46474736673667
 6 -3.58758312251225 -3.74497058165817  1.85334651435144
 8 -3.79472312691269 -3.16305953875388  2.95536925222522
 8 -2.88079942784278 -4.79785793829383  1.69832792079208
 6 -2.18521115961596 -5.32082255155516  2.91774311131113
 6  2.94768854545455 -0.67134639233923 -1.18794416931693
 6  4.22298562096210 -0.42733658305831 -0.50604313301330
 6  5.15202881028103  0.41325464996500 -0.90851075127513
 6  4.97084450105011  1.28130266656666 -2.19561665276528
 6  6.47042349994999  0.58445725262526 -0.17685437163716
 6  7.64711245014501  0.08660677877788 -0.98052772147215
 6  8.95304438683868  0.09432969946995 -0.12669526372637
 6  10.18758965196520 -0.51942904120412 -0.84241063546355
 6  10.10041722792279 -2.06937627252725 -1.14453611511151
 6  11.47040815791579 -0.29708059865987 -0.05422522382238
 6  12.82897006600660 -0.49435595149515 -0.77457799759976
 6  13.95807149494950 -0.20309707290729  0.17950516351635
 6  15.41590693469347 -0.28008061976198 -0.45042809310931
 6  15.77960206240624 -1.75822860866087 -0.84326160596060
 6  16.41073432743274  0.41768615471547  0.44386357105711
 6  17.85976168046805  0.52560068586859 -0.12588086798680
 6  18.83771917141714  1.24325617241724  0.79768212991299
 6  20.28978665846585  1.29658540314031  0.33560316391639
 6  20.29375960486048  1.98620426842684 -1.08489431083108
 6  21.17547542164217  1.92902727212721  1.41741844344434
 1 -4.15068532703270  3.42321070277028  1.48662318331833
 1 -10.29500325202520  3.85191277517752 -0.41579588218822
 1 -10.35938520032003 -2.52570262496250 -0.97481102860286
 1 -2.63778246894689 -1.09053871757176  1.85089232783278
 1 -2.18550818881888  1.69868835743574  1.17128149464946
 1 -2.00526424972497  0.92046753575358  3.43615382878288
 1 -2.92796758295830  2.35627508410841  3.47291185868587
 1 -3.65967694889489  0.74164853255326  3.45687957245725
 1 -2.02741526842684 -1.56978289868987 -0.29090407640764
 1 -2.14443864606461  0.02275436673667 -0.90277537913791
 1 -0.18410550455046  0.69187711121112  0.77307955985599
 1 -0.09392534623462 -1.08039101450145  1.07166004190419
 1 -4.91736390409041  6.25248042314231  0.55142692489249
 1 -6.29760443074307  6.56592639143914  1.84284897409741
 1 -5.08375160396040  5.35296046744674  2.12570624932493
 1 -9.67251475037504  5.68704164026403  0.38383622812281
 1 -8.88725936633663  8.11243983348335 -0.11659106580658
 1 -7.28260329692969  7.63955452465247 -0.39495396599660
 1 -12.30287570037004  3.16096340164016 -2.27842414081408
 1 -13.28134334783478  1.95049068716872 -1.52064558825883
 1 -12.56808376977698  3.17312039743974 -0.32700419841984
 1 -12.32076460456046 -1.77866026422642 -1.17179738763876
 1 -13.37204320792079 -0.27926173917392 -1.20349770677068
 1 -13.30350081628163 -1.75157639683968 -3.23252625032503
 1 -12.63292346634664 -0.17082580848085 -3.56861443644364
 1 -11.74201754935494 -1.75997894189419 -3.61010012551255
 1 -8.93772466836684 -4.75013786208621 -1.88399598099810
 1 -8.09150285128513 -5.81789189738974 -0.71852608070807
 1 -9.49702186798680 -5.08894568156816 -0.11185944214421
 1 -3.43648378037804 -3.29388097259726 -0.34093074607461
 1 -1.64666575657566 -4.39245762306231  3.27844453145315
 1 -2.92394758215822 -5.65150579297930  3.69287650975098
 1 -1.51442286878688 -6.03314749184918  2.50766746964697
 1  2.77343201430143 -1.80639032893289 -1.54291836813681
 1  3.04488618881888  0.04337725612561 -2.13039505930593
 1  4.30520974527453 -0.93915192139214  0.51821419761976
 1  3.84239517581758  1.40941203750375 -2.42507584988499
 1  5.25409870827083  2.41458584878488 -2.37483183778378
 1  5.31750707350735  0.51450178037804 -2.98820011931193
 1  6.57545056835684  1.57387361506151  0.05407290499050
 1  6.65800914891489  0.09428617971797  0.80890189728973
 1  7.47374111621162 -0.84112518421842 -1.47676180488049
 1  7.73435496649665  0.79536641314131 -1.78791893879388
 1  9.27314341154115  0.99370198669867 -0.07769380688069
 1  8.78448627142714 -0.61630998639864  0.82403702230223
 1  10.24742645414541  0.02365713201320 -1.82025585618562
 1  9.15411190759076 -2.41924896919692 -1.65066002720272
 1  10.81783486818682 -2.39324583718372 -1.75873205920592
 1  10.03790126372637 -2.54394601720172 -0.16311840254025
 1  11.49806456865686  0.74377878537854  0.31109307270727
 1  11.33322373207321 -0.98827116521652  0.80055752875288
 1  12.85853158885889 -1.33657051845185 -1.26402473737374
 1  12.70082898889889  0.14807428642864 -1.63616197999800
 1  13.88335983918392  0.80978423392339  0.73794045454545
 1  14.17730382068207 -0.78791122842284  1.00194536423642
 1  15.49344173627363  0.23773363376338 -1.43264292379238
 1  15.75244724572457 -2.23904062996300  0.21928433083308
 1  14.97940547234723 -2.32075026862686 -1.42958067846785
 1  16.77898595719572 -1.90161409000900 -1.22669477827783
 1  16.01368657835783  1.47453652635264  0.77932135313531
 1  16.39353105510551 -0.13814020972097  1.51487441914191
 1  18.51068025992599 -0.42017898169817 -0.25653166076608
 1  17.88830891209121  1.03353461196120 -1.22745622952295
 1  18.57102578537853  2.29675157475748  0.92534763566357
 1  18.71980825822582  0.71603521482148  1.96744309590959
 1  20.68280834753475  0.20137657345735  0.08067581798180
 1  19.47204403770377  2.94437342224222 -1.20985125462546
 1  21.32359847374737  2.15006088398840 -1.28459971397140
 1  19.66172700590059  1.29879128142814 -1.90933135643564
 1  21.33253326862686  1.35291459525953  2.18049749134914
 1  22.20832547304731  2.02832136333633  0.90878514471447
 1  21.05546807940794  2.88256193239324  1.72632856405641

