%nproc=4
%Mem=2GB
# td=(NStates=1) CAM-B3LYP/6-31G(d,p) 

TD

0 1
12 -7.16842851215122  0.63193143384338  0.15277332593259
 6 -4.85656453755375 -1.87122923422342  0.47729336423642
 6 -4.91122042834283  2.70150447774777  1.35491894909491
 6 -9.47153174197420  3.11675407480748 -0.39012034503450
 6 -9.58783981158116 -1.77784795979598 -0.91893000800080
 7 -5.05420820242024  0.38792005250525  0.68090561096110
 6 -4.38775638093809 -0.75456607700770  0.80295219801980
 6 -2.94430539173917 -0.42017728982898  1.24609005020502
 6 -3.09768005720572  0.95146627912791  1.68553135953595
 6 -4.41977006370637  1.43262364276428  1.21576783798380
 6 -2.85942373337334  1.23532001930193  3.24415794189419
 6 -1.95839011991199 -0.57348135823582  0.06111543734373
 6 -0.48081633563356 -0.36564479587959  0.43791237413741
 6  0.50024940334033 -0.61447487958796 -0.68709036083608
 8  0.25824637433743 -0.87034843864386 -1.81155043534353
 8  1.79711673667367 -0.46178108490849 -0.10724494459446
 7 -7.11867947644765  2.56804821212121  0.45933108990899
 6 -6.16533366436644  3.30247120102010  0.80729871387139
 6 -6.45948393809381  4.72556318671867  0.79266703120312
 6 -7.76749734513451  4.81215110181018  0.34069097609761
 6 -8.17802835603560  3.44552484378438  0.05138547774777
 6 -5.66973275447545  5.91696278757876  1.28082460766077
 6 -8.50457967036704  5.98192326032603  0.20757077897790
 6 -8.10900009780978  7.34762084638464 -0.03192745504550
 7 -9.15760079577958  0.62911939023902 -0.44010571587159
 6 -9.90474213321332  1.78225890849085 -0.63098822302230
 6 -11.22686742964297  1.48053904430443 -1.09518426802680
 6 -11.27526604730473  0.17333121042104 -1.26649591579158
 6 -9.96109599329933 -0.42415090319032 -0.86573587648765
 6 -12.36496473857386  2.52217449834983 -1.27309784068407
 6 -12.46731677737774 -0.67596865906591 -1.65174035123512
 6 -12.56984331633163 -1.07329121432143 -3.14099220462046
 7 -7.22927918001800 -1.37628699029903 -0.19567268596860
 6 -8.33008823112311 -2.19358529802980 -0.64086189208921
 6 -7.85225289278928 -3.60461464436444 -0.58617704670467
 6 -6.55640116211621 -3.49813412891289 -0.17207970007001
 6 -6.27156193439344 -2.15535168966897 -0.02051042964296
 6 -8.52992333703370 -4.85639845874587 -0.95977552455246
 6 -5.34782131983198 -4.32473845914592  0.15600410031003
 8 -5.06465782758276 -5.50601325492549  0.11930796559656
 6 -4.28233164316432 -3.23264619871987  0.62276316831683
 6 -3.64963932813281 -3.65558164276428  1.94133531323132
 8 -3.89776343094309 -3.15042827562756  3.01615533083308
 8 -2.78384973287329 -4.70072822532253  1.73695178317832
 6 -2.34812745124512 -5.31400186948695  2.94739607660766
 6  2.80798457505751 -0.72874213191319 -1.09896527142714
 6  4.23585690809081 -0.59598344774477 -0.48176070477048
 6  5.20644425182518  0.16126945144514 -0.86836673687369
 6  5.11025844244424  1.12424696099610 -2.07914500560056
 6  6.51907836543654  0.21210001690169 -0.09065575177518
 6  7.72943068196820 -0.27805968786879 -0.89303897259726
 6  8.94004308670867 -0.22026175967597  0.00504791059106
 6  10.28899979297930 -0.59746684498450 -0.83366976137614
 6  10.13008019421942 -1.99942927782778 -1.30560222172217
 6  11.54985610271027 -0.43788467906791  0.04383458215822
 6  12.96713388238824 -0.46903341924192 -0.81929246904690
 6  14.03018870667067 -0.14627139033903  0.05536274927493
 6  15.45805114911491 -0.10370298199820 -0.52060511081108
 6  15.83592769496950 -1.53685647144714 -0.93611089088909
 6  16.40989424342434  0.55129951605161  0.31957114181418
 6  17.90990669496950  0.57396552235224 -0.30496877677768
 6  18.90790619011901  1.25232707950795  0.73745610731073
 6  20.32998067786779  1.40617636223622  0.16065566916692
 6  20.41241147004700  2.29891553955396 -1.06525234663466
 6  21.30260813491349  2.05901027042704  1.33505020662066
 1 -4.11244150265026  3.44422280398040  1.64825934693469
 1 -10.23304705640564  3.79751733563356 -0.86820112271227
 1 -10.42834209600960 -2.49828988368837 -1.18041158865887
 1 -2.59846853755376 -0.98560822452245  2.07080431903190
 1 -2.24765440344034  1.60548903750375  1.30229459595960
 1 -1.92105582888289  0.73631912091209  3.58466868026803
 1 -2.89032381858186  2.23924338093809  3.51919648714871
 1 -3.68092907410741  0.53324769246925  3.83204708920892
 1 -2.27288981588159 -1.56796271667167 -0.32965795179518
 1 -2.35115931813181 -0.01505941464146 -0.79282438403840
 1 -0.41126822082208  0.76562448594860  0.69311156305631
 1 -0.23676963066307 -1.09350232563256  1.40570344624462
 1 -4.90468263596360  6.54382955805581  0.65097687988799
 1 -6.47928259855986  6.62506230503050  1.78018270747075
 1 -4.88111133993399  5.59330450185019  2.15684936363636
 1 -9.49149664856485  5.92557549364937  0.38666651115112
 1 -8.94421506190619  8.17747633713371 -0.03342274897490
 1 -6.93367840444044  7.46903747294730 -0.30409488008801
 1 -12.47636304910491  2.97002430773077 -2.37248354675468
 1 -13.46482169566957  2.09993563166317 -1.09852337603760
 1 -12.34564152555256  3.35169825522552 -0.56445794379438
 1 -12.61570409850985 -1.65424782298230 -1.12719292719272
 1 -13.32036804040404 -0.04786859985999 -1.45840319731973
 1 -13.45559602580258 -1.73740497969797 -3.23705670337034
 1 -12.51558173217322 -0.16967569346935 -3.76436401140114
 1 -11.64187753535354 -1.69745268926893 -3.35371448694869
 1 -9.29998089398940 -4.61190403870387 -1.90896847824783
 1 -7.85428912991299 -5.77171727992799 -1.27737196529653
 1 -9.32250441624162 -5.07191397839784 -0.27193544974497
 1 -3.40982111411141 -3.34339592409241 -0.13131978497850
 1 -1.70159124912491 -4.61801017831783  3.63397008400840
 1 -3.28366355375538 -5.69542018441844  3.72488971107111
 1 -1.75443687018702 -6.03919809690969  2.66616331923192
 1  2.48553322442244 -1.73454314421442 -1.59884396069607
 1  2.77145884608461  0.06757967636764 -1.78627064686469
 1  4.57946717101710 -1.21647965416542  0.36177855405541
 1  4.10575151145115  1.35927702400240 -2.52669601190119
 1  5.47989128752875  2.20564495469547 -1.81062541714171
 1  5.78979430223022  0.72371270147015 -2.71481278057806
 1  6.77379040234023  1.14308053575358  0.21845934363436
 1  6.36974032203220 -0.38955220412041  0.83932493959396
 1  7.40899464156416 -1.26588766046605 -1.17339146784678
 1  7.98396992799280  0.38509538603860 -1.77980812771277
 1  9.05699179637964  0.77108972547255  0.29883384588459
 1  8.79546736953695 -0.89456781218122  0.94168878747875
 1  10.15726743824382  0.27291205750575 -1.69250308090809
 1  9.16452294869487 -2.26438348264826 -2.01426638783878
 1  10.91990507520752 -2.46947345994599 -1.91471765776578
 1  9.91232870647065 -2.54870649324933 -0.31040313101310
 1  11.39120388258826  0.61975638313831  0.68329029242924
 1  11.60149055875588 -1.32932527062706  0.75100257325733
 1  12.80904664036404 -1.57058391979198 -1.09970830573057
 1  12.93183208920892  0.17364684368437 -1.67140550435044
 1  13.94279578277828  0.92733598909891  0.35379203970397
 1  13.93992008230823 -0.71648408570857  0.93244841454145
 1  15.36833922602260  0.52190205060506 -1.38811847134714
 1  16.15370737173717 -1.96001272717272  0.02475487788779
 1  14.91448898069807 -1.86198439203920 -1.52618033843384
 1  16.73997205580558 -1.55238916751675 -1.64499660846085
 1  16.25524073377338  1.64453352605261  0.67094051505151
 1  16.44036573857386  0.07822142644264  1.43839677137714
 1  18.27885707760776 -0.34645160896090 -0.44194020162016
 1  17.93451353255325  1.22338359685969 -1.27473095699570
 1  18.37253593639364  2.25542744234424  1.10153525442544
 1  19.04355063246324  0.75794940624062  1.72588894049405
 1  20.73184325102510  0.46507294309431 -0.07366961656166
 1  20.13577041034103  3.33283226812681 -0.72216248574857
 1  21.30454656855686  2.34626050395040 -1.45142639663966
 1  19.80949178237823  2.19685108740874 -1.94780520382038
 1  21.07954797009701  1.39059836363636  2.15666510811081
 1  22.46416105660566  1.82468099929993  1.20801506770677
 1  21.01390392299230  3.18529220542054  1.51336726792679

