%nproc=4
%Mem=2GB
# td=(NStates=1) CAM-B3LYP/6-31G(d,p) 

TD

0 1
12 -7.18785045434543  0.58029627032703  0.16074412301230
 6 -4.80402928402840 -1.79305141644164  0.59301493639364
 6 -4.87492679897990  2.96220054735474  1.08618207540754
 6 -9.58226281508151  2.96739913931393 -0.37518885188519
 6 -9.58296932453245 -1.82298247324732 -0.84192230723072
 7 -5.19808258985899  0.53832509300930  0.72102962336234
 6 -4.39021662696270 -0.59864048444844  0.85229713251325
 6 -2.94681564276428 -0.32728800090009  1.19899534073407
 6 -3.05658594779478  1.23525465796580  1.58944175057506
 6 -4.47336542324232  1.63422380278028  1.12373863506351
 6 -3.00401819281928  1.48121460876088  3.13461698779878
 6 -1.90995527642764 -0.49744375447545  0.05751507730773
 6 -0.45490374437444 -0.40505873727373  0.54869345224522
 6  0.48315769416942 -0.58402183428343 -0.59689134093409
 8  0.22870342004200 -0.85483688748875 -1.70163944424442
 8  1.77566459145915 -0.38472337913791 -0.19942416251625
 7 -7.22110971947195  2.61265267256726  0.46848200500050
 6 -6.16103323432343  3.41777273117312  0.70648863286329
 6 -6.65466345604561  4.78224885528553  0.88051581608161
 6 -8.02137273267327  4.69517940464046  0.50788769576958
 6 -8.38930948414841  3.40988127942794  0.08300864006401
 6 -5.84273005420542  5.91474256555655  1.36069259445945
 6 -8.92817202960296  5.87598266626663  0.55573559545955
 6 -8.58614781258126  7.18088417271727  0.35985172287229
 7 -9.20797583328333  0.57291376967697 -0.53468517381738
 6 -10.00550220922092  1.67673835643564 -0.57119224342434
 6 -11.27047179007901  1.32520351075108 -1.02915766536654
 6 -11.22244076477648 -0.02081820452045 -1.24925419161916
 6 -9.97404728842884 -0.50204869296930 -0.90226952985299
 6 -12.30156839893989  2.32257453835384 -1.42925345624562
 6 -12.31832187788779 -0.89973103530353 -1.89670484768477
 6 -12.21259759175918 -1.06621050625062 -3.42838094349435
 7 -7.22318857095710 -1.39736909850985 -0.12346546524652
 6 -8.24200942324232 -2.25002094159416 -0.57790559645965
 6 -7.76296396389639 -3.58230241314131 -0.42765119411941
 6 -6.42841836383638 -3.54700901640164 -0.08136062816282
 6 -6.11658643684368 -2.11072722722272  0.06327794919492
 6 -8.43781412611261 -4.92852567146715 -0.84697424442444
 6 -5.27215375307531 -4.29968595389539  0.26517501740174
 8 -4.92769413121312 -5.50639329292929  0.23494952975298
 6 -4.15805921592159 -3.10128306240624  0.54400529252925
 6 -3.38516288048805 -3.50385647024702  1.73656483618362
 8 -3.54115777037704 -3.03836706950695  2.82711642694269
 8 -2.52349369726973 -4.58262641514151  1.63233132113211
 6 -1.95561820032003 -5.03361383068307  2.86718805580558
 6  2.84532830943094 -0.57832709040904 -1.18993436833683
 6  4.15383870627063 -0.38783263266327 -0.55512804150415
 6  5.20498410581058  0.43769709420942 -0.94833473367337
 6  5.12198961556156  1.25660019631963 -2.22909000010001
 6  6.47862432003200  0.42551135803580 -0.18123480968097
 6  7.77807554645465 -0.19073095499550 -0.91612128082808
 6  9.05393447584759 -0.12119185268527 -0.02798539273927
 6  10.31204209720972 -0.53522062036204 -0.82131852625263
 6  10.11282846904690 -1.97606694159416 -1.34525618711871
 6  11.49732084918492 -0.39550044064406  0.08959915861586
 6  12.77589475847585 -0.60139665556556 -0.63794433423342
 6  14.00391607940794 -0.22227899109911  0.22349956295630
 6  15.26175151915192 -0.29858246994699 -0.39752280258026
 6  15.70063416561656 -1.77879066486649 -0.89065634543454
 6  16.47555080908091  0.18425281138114  0.48935812051205
 6  17.89582528682868  0.33641176697670 -0.14247252715272
 6  18.82846824632463  1.03728557535754  0.75308767046705
 6  20.30982866266627  1.24748049264926  0.05971557515752
 6  20.22183241214121  2.13206885488549 -1.13679950135014
 6  21.17404527862787  1.81126549594960  1.15866256785679
 1 -4.16019627812781  3.66136451815182  1.59428394939494
 1 -10.33280703240324  3.72441002490249 -0.56405070767077
 1 -10.22070133193319 -2.51281133583358 -1.24603815131513
 1 -2.57454614531453 -1.03818348204820  1.98422566116612
 1 -2.19290892889289  1.80172866146615  1.00534490099010
 1 -2.05329905320532  1.33463895289529  3.46995720912091
 1 -3.26909169536954  2.54414387098710  3.35099966746675
 1 -3.62281326252625  0.78510287798780  3.56915079957996
 1 -2.17570009690969 -1.39362528292829 -0.32990797679768
 1 -2.23683788598860  0.10497258855886 -0.83105820742074
 1 -0.12174926892689  0.48195611911191  1.13141539343934
 1 -0.10169612331233 -1.25203817921792  1.19912278817882
 1 -5.04928709640964  6.01730690579058  0.56101788398840
 1 -6.35672034233423  6.68380817961796  1.88615330453045
 1 -5.20866409520952  5.58356352775277  2.24826850555055
 1 -9.96322382128213  5.56203914001400  0.84506235073507
 1 -9.29645028542854  8.01977056655666  0.40118071137114
 1 -7.54015905250525  7.43701427062706  0.23241877127713
 1 -12.11263667646765  2.92867017231723 -2.27390368876888
 1 -13.10514572807281  1.79960559865987 -1.78234175787579
 1 -12.48538549995000  3.08792187758776 -0.66006750475048
 1 -12.31523405150515 -1.77364976317632 -1.27970817871787
 1 -13.06710271387139 -0.34640845384539 -1.63032038903890
 1 -12.90709117531753 -1.56886812601260 -3.78579157685769
 1 -12.15218539253925 -0.21416014191419 -4.03078065306531
 1 -11.21741508910891 -1.56243918791879 -3.67072618811881
 1 -8.93624452035204 -4.78471131943194 -1.75235281668167
 1 -7.88502220322032 -5.82647275547555 -1.12250647874787
 1 -9.28287045284528 -4.97099388638864 -0.04332258845885
 1 -3.50226035803580 -3.45175676017602 -0.26555320832083
 1 -1.65187627762776 -4.00416879417942  3.48092477947795
 1 -2.67772295969597 -5.84283492589259  3.24568179027903
 1 -0.85755718221822 -5.49597377447745  2.46394309720972
 1  2.62599727082708 -1.69626931683168 -1.50311438773877
 1  2.69471117131713  0.10878379677968 -2.03620564036404
 1  4.42154137843784 -0.71676968316832  0.44950732693269
 1  4.11178211451145  1.32956405270527 -2.66892023432343
 1  5.43264656305631  2.36890128032803 -1.96696105070507
 1  5.69867519031903  0.79610994119412 -2.88382968226823
 1  6.77774079737974  1.49194542224222  0.14037153485349
 1  6.53020636863686 -0.45382863176318  0.64175518261826
 1  7.51483522562256 -1.34482555425543 -1.29544367306731
 1  7.87416894789479  0.51164804130413 -1.89534968186819
 1  9.09413551075107  1.14353697019702  0.10156411891189
 1  9.04494231703170 -0.56005436083608  1.05224984358436
 1  10.32511422292229  0.33072783908391 -1.81037486808681
 1  9.29210570697070 -2.02290933523352 -2.29022398359836
 1  11.14745783048305 -2.31886839943994 -1.67949413541354
 1  9.89216669026903 -2.47397902050205 -0.40088217891789
 1  11.42041680388039  0.40196460396040  0.61693365676568
 1  11.29158956865687 -0.91034337243724  0.98388586158616
 1  12.77962369806981 -1.74183104450445 -0.99838817371737
 1  12.85329423542354  0.01295077407741 -1.65088345214521
 1  13.78809031223122  0.89177243274327  0.28328498899890
 1  14.04679076937694 -0.71723416071607  1.24243941364136
 1  15.18079047114711  0.44479433983398 -1.32412207170717
 1  15.87628962996300 -2.23547027292729  0.17049945234523
 1  14.97901543334333 -2.14585277887789 -1.69511723212321
 1  16.68437649624963 -1.79727365596560 -1.46502861166117
 1  16.21181639133913  1.24910398309831  0.86108952995300
 1  16.46002770477048 -0.63089948564857  1.32470540224022
 1  18.36985617751775 -0.65473243704370 -0.42956896449645
 1  17.82332241344135  0.74339559805981 -1.25362884678468
 1  18.42699138193819  2.01282318191819  1.15573067396740
 1  18.87777405480548  0.55162877417742  1.72055840744074
 1  20.66286635333533  0.28290472627263 -0.16557880748075
 1  19.97416424972497  3.22076106100610 -0.82759302880288
 1  21.17937405130513  2.03837971587159 -1.63018427242724
 1  19.52029286248625  1.59670107240724 -2.02403282658266
 1  21.45253526882688  1.14068337213721  2.07283672527253
 1  22.12647728822882  2.14454298549855  0.53765803200320
 1  20.51455398799880  2.75257893409341  1.74184011521152

