%nproc=4
%Mem=2GB
# td=(NStates=1) CAM-B3LYP/6-31G(d,p) 

TD

0 1
12 -7.11375304460446  0.54269250995100  0.12393044164416
 6 -4.91702058315832 -1.95995810711071  0.49352498739874
 6 -4.79493880018002  2.80857518481848  1.21670512771277
 6 -9.32752734153415  3.17166956635664 -0.42672400540054
 6 -9.59870089768977 -1.79254942994299 -0.94520263526353
 7 -5.09262204380438  0.50406166666667  0.71004852525253
 6 -4.31757936323632 -0.72384300470047  0.80962286508651
 6 -2.89152011321132 -0.43225849794980  1.18315375657566
 6 -2.98845913511351  1.07968910141014  1.74804761116112
 6 -4.35981406810681  1.55076545694569  1.13811007220722
 6 -2.96990478147815  1.22965945324532  3.23923744984498
 6 -1.85577985888589 -0.60217422752275  0.14710403620362
 6 -0.46560481448145 -0.54941317271727  0.61294987788779
 6  0.48505788418842 -0.70214364646465 -0.50876252805281
 8  0.34798534823482 -1.07588899269927 -1.63703298359836
 8  1.75803282828283 -0.33757866466647 -0.05270949104910
 7 -6.98349595809581  2.60117152445245  0.40157531433143
 6 -5.99438656965697  3.36131708560856  0.78380636463646
 6 -6.42312030173017  4.72324295469547  0.82442020652065
 6 -7.65186578197820  4.84937482418242  0.40513742074207
 6 -8.03964451765176  3.46440673197320  0.11459179837984
 6 -5.49404518571857  5.79965105640564  1.39193571877188
 6 -8.51786099849985  6.03115818381838  0.22777279917992
 6 -8.05561475927593  7.23227931223122 -0.10016427872787
 7 -9.18576361206120  0.66600307860786 -0.58105981128113
 6 -9.85700735973597  1.82864354695470 -0.62244736893689
 6 -11.16848159105911  1.51985297569757 -1.16944169376938
 6 -11.27216573727373  0.12173605090509 -1.32403166936694
 6 -9.97170705440544 -0.41482997109711 -0.94086338923892
 6 -12.26544478657866  2.49082136303630 -1.46483701460146
 6 -12.43990403610361 -0.62140320252025 -1.75292046924692
 6 -12.41916824882488 -1.08812269746975 -3.22096020142014
 7 -7.25537178927893 -1.41788114971497  0.00671755305531
 6 -8.29332455475548 -2.20405634513451 -0.47129493539354
 6 -7.90790845834583 -3.56901108400840 -0.51168959795980
 6 -6.58402392439244 -3.57492180768077 -0.00571306340634
 6 -6.25252003020302 -2.26755290979098  0.15283690509051
 6 -8.64355470017002 -4.79796261516152 -0.89645919291929
 6 -5.37640417811781 -4.36894287958796  0.18392689258926
 8 -5.26079744154415 -5.55550820442044  0.19354538933893
 6 -4.15286869686969 -3.38188112221222  0.54611550355035
 6 -3.55877024122412 -3.77716380098010  1.85235641534153
 8 -3.74988864346435 -3.26851008380838  2.95241895719572
 8 -2.73233458135814 -4.84201235373537  1.64715280328033
 6 -2.05149778827883 -5.16528699799980  2.89464080108011
 6  2.74410818741874 -0.56383564126413 -1.16269164406441
 6  4.09949327172717 -0.48153200260026 -0.48456098479848
 6  5.12645625302530  0.25906923142314 -0.95865576577658
 6  5.05904332093209  1.19672420872087 -2.08905599669967
 6  6.45866232383238  0.31561036793679 -0.21209789598960
 6  7.59906764566457 -0.18362024392439 -1.03401307000700
 6  8.92495157755776 -0.25760549404940 -0.17463005720572
 6  10.19705059805981 -0.53399049734973 -0.92381877627763
 6  10.08979616581658 -2.05570490539054 -1.40348200970097
 6  11.36529764686469 -0.31773266386639  0.05251545024502
 6  12.72413958295830 -0.51042755865587 -0.57682822262226
 6  13.98815450325032 -0.23421018421842  0.29250646364636
 6  15.35087043104310 -0.08622123382338 -0.55290834113411
 6  15.70951505370537 -1.46739952575258 -1.05835311511151
 6  16.38273152715271  0.45496988308831  0.34451363606361
 6  17.76350205450545  0.64874300010001 -0.22756103600360
 6  18.75062046154616  1.32490433723372  0.77237959965997
 6  20.21690937073707  1.42356810141014  0.18350795439544
 6  20.21432166106610  2.38675432343234 -1.05726154755476
 6  21.27080495459546  1.80913528292829  1.31177787938794
 1 -4.03041329982998  3.44196257795780  1.49312383338334
 1 -10.01394514621462  4.02983056695670 -0.36002030463046
 1 -10.40282954475447 -2.57582763746375 -1.09043259075908
 1 -2.74509320002000 -1.23959362306231  2.02073931253125
 1 -2.22215185318532  1.73682217081708  1.51489585608561
 1 -2.22970669396940  0.61697718671867  3.67759797319732
 1 -2.80077486368637  2.29424888148815  3.43785835333533
 1 -3.84537551875187  0.72561692939294  3.72533641814181
 1 -2.10936346324632 -1.75140106050605 -0.40158514451445
 1 -1.89580378257826 -0.02786069476948 -0.68000310191019
 1 -0.25890298429843  0.41945986948695  1.01983423532353
 1 -0.37094304800480 -1.39238221362136  1.60056293219322
 1 -4.88961112881288  6.20089526462646  0.54536631883188
 1 -5.82577724802480  6.75821562036204  1.90794548374837
 1 -4.76534976377638  5.51106627802780  2.04403808250825
 1 -9.60089758865887  5.77178011411141  0.08759660416042
 1 -8.61814245464546  8.18590718021802 -0.06853626032603
 1 -7.01287632423242  7.44438500770077 -0.07452192279228
 1 -11.89547496029603  3.42540984628463 -2.12032833123312
 1 -13.21423663716372  1.98443408150815 -1.99924344804480
 1 -12.54838179957996  2.65664875027503 -0.22764426242624
 1 -12.53006553465347 -1.46100849904990 -1.02917312521252
 1 -13.44003000660066 -0.18170198319832 -1.61859921692169
 1 -13.23468393459346 -1.46336757595760 -3.62099509720972
 1 -12.29632980698070 -0.05542426832683 -3.77010458545855
 1 -11.52550589818982 -1.72562550655066 -3.38030714621462
 1 -9.22407330323032 -4.86953980228023 -1.81920950235024
 1 -7.98545224622462 -5.66210631883188 -0.94670889898990
 1 -9.39790195599560 -5.13131991899190  0.05887763156316
 1 -3.41668180018002 -3.43542512701270 -0.17667432043204
 1 -1.76478756875687 -4.15849422672267  3.21308799579958
 1 -2.82613780118012 -5.61592223462346  3.31187840994099
 1 -1.23058448494849 -5.82757693479348  2.72317902080208
 1  2.58372304340434 -1.50595028492849 -1.54895897219722
 1  2.48631033123312  0.16529944834483 -1.94830685048505
 1  4.12432165646565 -1.24928293449345  0.27887026322632
 1  3.82594353065307  1.46510760706071 -2.34828817111711
 1  5.37300059845985  2.06364075427543 -1.69594394899490
 1  5.79612493529353  0.97169749995000 -2.92535383468347
 1  6.54612763606361  1.23345957365737 -0.01769427172717
 1  6.19857320532053 -0.29141239013901  0.54818582568257
 1  7.39212295439544 -1.18054912661266 -1.23500762946295
 1  7.49400093109311  0.36309318581858 -1.98564871177118
 1  9.15253135033503  0.69616223272327  0.20989495199520
 1  8.62423024582458 -0.93533188858886  0.58792341094109
 1  10.34830654215422  0.36247101340134 -1.62842667326733
 1  9.21433793019302 -2.02547959225923 -2.05205016621662
 1  11.03802688738874 -2.00169668226823 -1.98696488248825
 1  10.04094156775678 -2.60960258285829 -0.55712780348035
 1  11.15624038623862  0.72269667716772  0.53106506990699
 1  11.16262667236724 -0.94285662376238  0.89267674067407
 1  12.96136187188719 -1.52327918931893 -0.88187652255226
 1  12.82406131213121  0.15657513651365 -1.33370173397340
 1  13.77792929612961  0.82811606710671  0.65069172967297
 1  14.16282237253725 -0.95559799709971  1.11461663136314
 1  15.20033242534253  0.71131099149915 -1.35788544804480
 1  15.70175217621762 -1.79567629352935 -0.04360195779578
 1  15.01795932773277 -2.11574976857686 -1.77191491189119
 1  16.65390344894490 -1.45689961856186 -1.71860396919692
 1  15.83297850755075  1.27781685438544  0.83020644164416
 1  16.40745244724473 -0.44192058775878  1.09799273097310
 1  18.25338453035304 -0.32980994479448 -0.72882889048905
 1  17.79768985018502  1.60646190469047 -1.12861634553455
 1  18.37821650445044  2.31663356295630  1.18634373527353
 1  18.82060833823382  0.59080269156916  1.66028237983798
 1  20.20566063276328  0.42238867466747 -0.26837908750875
 1  20.10947778107811  3.54315330023002 -0.76031630113011
 1  21.31042715661566  2.44051992989299 -1.37615886988699
 1  19.78362919611961  2.06527793009301 -1.93010343364336
 1  20.95676569186919  1.26233553735373  2.24868431003100
 1  22.31007564806481  1.64689322052205  0.79575384158416
 1  21.20675320792079  3.00441411761176  1.41154708590859

