%NProcShared=4
%Chk=lutein-s1-geom-freq.chk
%Mem=5GB
#n CAM-B3LYP/6-31G(d,p) Opt Freq=savenormalmodes td

 lutein-s1-geom-freq

0 1
O        -13.96689       -2.12845        1.07540
O         14.67710        1.00420        0.86452
C        -11.78764        0.23404        1.25389
C        -10.94119        0.12898       -0.04757
C        -11.93041       -1.16796        1.86844
C        -12.54438       -2.20830        0.93788
C        -11.44205       -0.97910       -0.96249
C         11.11835       -0.00370        1.77176
C        -11.10606        1.15879        2.26695
C        -13.16184        0.82852        0.91177
C         12.47247        0.71915        1.86555
C        -12.12839       -2.02132       -0.49472
C         13.43207        0.33023        0.75562
C         10.61059       -0.03145        0.31983
C         -9.46666       -0.08220        0.19295
C         12.82918        0.72213       -0.57577
C         11.38133        0.32175       -0.72701
C         10.13204        0.74823        2.68346
C         11.24719       -1.44797        2.29074
C        -11.08233       -0.84579       -2.41432
C         -8.50762        0.75914       -0.20860
C          9.21532       -0.48872        0.15365
C         10.90328        0.40948       -2.15241
C         -7.06728        0.58989       -0.01628
C          8.81250       -1.46441       -0.67281
C         -6.59617       -0.65583        0.68052
C          7.42703       -1.91515       -0.86244
C         -6.24210        1.55898       -0.47027
C          7.27497       -3.37943       -1.17983
C          6.39522       -1.04985       -0.76483
C         -4.79989        1.60726       -0.38800
C          4.98428       -1.34797       -0.87293
C         -4.07489        2.64414       -0.84814
C         -2.61748        2.76725       -0.82344
C          4.03033       -0.39916       -0.79782
C          2.59504       -0.61000       -0.89271
C         -2.10255        4.18197       -0.76916
C         -1.81966        1.67551       -0.86322
C          1.77917        0.46857       -0.80704
C          2.10075       -2.01726       -1.08530
C         -0.37980        1.63987       -0.79468
C          0.34066        0.50136       -0.88019
H        -11.04829        1.08096       -0.58487
H        -12.54446       -1.12271        2.77338
H        -10.94089       -1.52218        2.17868
H        -12.21906       -3.20666        1.27103
H        -10.13882        0.76926        2.59381
H        -10.93361        2.15128        1.83828
H        -11.73906        1.28188        3.15111
H        -13.69395        0.23200        0.17153
H        -13.79139        0.87118        1.80507
H        -13.04923        1.84894        0.53020
H         12.32177        1.80364        1.80471
H         12.91949        0.51512        2.84741
H        -12.44391       -2.80030       -1.18966
H         13.59296       -0.75826        0.76925
H         -9.19592       -1.00271        0.70541
H         13.41692        0.28987       -1.39382
H         12.92641        1.81121       -0.68440
H          9.19299        0.20582        2.81415
H          9.90408        1.74209        2.28699
H         10.57288        0.87625        3.67695
H         11.99263       -2.01593        1.72800
H         10.29516       -1.97708        2.20011
H         11.53919       -1.45299        3.34617
H        -10.00186       -0.72060       -2.53722
H        -11.55488        0.04287       -2.84833
H        -11.39834       -1.71677       -2.99243
H        -14.36364       -2.66615        0.37969
H          8.46633       -0.02760        0.79370
H         -8.80543        1.67039       -0.72654
H         11.31924       -0.40355       -2.75912
H          9.81880        0.37369       -2.24056
H         11.26157        1.34255       -2.60221
H         15.07986        0.75054        1.70315
H          9.57029       -2.00806       -1.23592
H         -5.51248       -0.70067        0.77611
H         -7.02304       -0.71956        1.68683
H         -6.92333       -1.54914        0.13856
H         -6.70488        2.41650       -0.95699
H          7.57413       -3.99744       -0.32605
H          6.25793       -3.65551       -1.45668
H          7.93205       -3.65555       -2.01164
H          6.63745       -0.00207       -0.59917
H         -4.28052        0.77805        0.08288
H          4.69022       -2.38304       -1.01408
H         -4.61448        3.50067       -1.25287
H          4.34632        0.63303       -0.65248
H         -1.02350        4.25193       -0.90127
H         -2.35897        4.65381        0.18560
H         -2.57263        4.78440       -1.55383
H         -2.30228        0.70674       -0.97459
H          2.25620        1.43802       -0.66900
H          2.43173       -2.65910       -0.26245
H          1.01494       -2.07797       -1.13848
H          2.50473       -2.44586       -2.00829
H          0.15655        2.57585       -0.66056
H         -0.19585       -0.43490       -1.01094

