%nproc=4
%Mem=2GB
# td(NStates=1) B3LYP/SVP nosymm

phycocyanobilin-abs Single Point

0 1
 O        -4.518792      -4.729188       1.886364
 O         2.934019      -4.834508       1.290682
 O         7.056186      -1.514589       1.847795
 O         3.752672      -3.138748       0.081416
 O         7.612480      -0.606207      -0.124307
 O        -3.016712       2.476025      -0.240954
 N        -0.286183      -0.576502      -0.593638
 N         1.553173       1.796212      -0.373379
 N        -3.430570      -3.129532       0.635287
 N        -0.745971       2.925818      -0.109761
 C         0.647676      -2.465617      -1.369169
 C         0.930662      -1.140489      -0.944447
 C        -0.746749      -2.671106      -1.258006
 C        -1.308938      -1.473581      -0.745341
 C         3.790587       1.425147      -0.347836
 C         2.493070       0.806682      -0.574414
 C         2.199957      -0.508542      -0.877550
 C         3.571631       2.749918      -0.002271
 C         1.638475      -3.467342      -1.897990
 C        -5.586648      -2.570904       1.350600
 C        -3.639371      -1.849380       0.112150
 C         2.137398       2.965718      -0.025230
 C        -5.058037      -1.524968       0.373611
 C         5.105219       0.703300      -0.429436
 C        -2.670378      -1.072284      -0.455856
 C        -1.500623      -3.874977      -1.747563
 C        -4.495332      -3.644943       1.348854
 C         2.045240      -4.557803      -0.891442
 C         5.421237      -0.149361       0.808939
 C         4.572138       3.807687       0.348162
 C         1.347586       4.105925       0.248805
 C        -6.978694      -3.146202       1.095339
 C        -5.813975      -0.562701      -0.195256
 C        -0.050110       4.043284       0.203744
 C        -0.970383       5.189070       0.493714
 C        -2.226738       4.708772       0.345971
 C         2.991587      -4.073809       0.186010
 C        -5.423392       0.437714      -1.239330
 C         6.804338      -0.757159       0.758774
 C        -3.562407       5.367018       0.481849
 C        -2.085637       3.248087      -0.039248
 C        -0.508625       6.561320       0.869102
 C        -4.224631       5.675951      -0.872243
 H        -0.434351       0.332944      -0.164467
 H         3.049854      -1.169979      -1.044914
 H         2.547491      -2.962931      -2.255653
 H         1.202207      -3.970824      -2.776335
 H        -5.561938      -2.156109       2.378395
 H         5.126898       0.052835      -1.318470
 H         5.920344       1.426907      -0.577004
 H        -2.899043      -0.014962      -0.610944
 H         0.516683       1.838170      -0.495279
 H        -1.524088      -4.708958      -1.021943
 H        -2.543703      -3.622980      -1.986798
 H        -1.040489      -4.278256      -2.663970
 H        -2.532422      -3.598516       0.627530
 H         1.171933      -5.025175      -0.412825
 H         2.578142      -5.372915      -1.414861
 H         4.705790      -0.979489       0.924138
 H         5.348004       0.445634       1.735293
 H         4.444797       4.705326      -0.280173
 H         5.603772       3.452808       0.214768
 H         4.465826       4.134919       1.396961
 H         1.841680       5.040704       0.512131
 H        -7.762284      -2.390055       1.253060
 H        -7.163557      -3.982341       1.786321
 H        -7.068160      -3.522365       0.064108
 H        -6.856583      -0.516687       0.140721
 H        -4.921582       1.318031      -0.801519
 H        -6.311703       0.793717      -1.783215
 H        -4.715045       0.011538      -1.967873
 H        -3.471207       6.293442       1.072960
 H        -4.223225       4.688678       1.048622
 H         0.124347       6.540401       1.772675
 H        -1.356167       7.233045       1.067436
 H         0.098124       7.014995       0.066658
 H        -3.617042       6.381169      -1.461839
 H        -5.221769       6.122590      -0.728583
 H        -4.344789       4.755077      -1.462616
 H         3.596935      -4.487698       1.913630
 H         7.957553      -1.863477       1.738374




